<?xml version="1.0" encoding="UTF-8"?>

<!-- generated on Sat Nov 28 08:17:40 2020 by Eclipse SUMO duarouter Version 1.7.0
<configuration xmlns:xsi="http://www.w3.org/2001/XMLSchema-instance" xsi:noNamespaceSchemaLocation="http://sumo.dlr.de/xsd/duarouterConfiguration.xsd">

    <input>
        <net-file value="map.net.xml"/>
        <route-files value="passenger_trips.xml"/>
    </input>

    <output>
        <output-file value="passenger_routes.rou.xml"/>
        <alternatives-output value="passenger_routes.rou.alt.xml"/>
    </output>

    <time>
        <begin value="0"/>
        <end value="3600"/>
    </time>

    <report>
        <no-warnings value="true"/>
        <ignore-errors value="true"/>
        <no-step-log value="true"/>
    </report>

</configuration>
-->

<routes xmlns:xsi="http://www.w3.org/2001/XMLSchema-instance" xsi:noNamespaceSchemaLocation="http://sumo.dlr.de/xsd/routes_file.xsd">
    <vType id="passenger" vClass="passenger" color="white"/>
    <vehicle id="pass0" type="passenger" depart="0.00">
        <route edges="171902839#2 171902839#3 171902839#4 171867126#8 706734276#3 171867136#0 -122612356#1 -122612356#0 374529112#1 -306475939 -133755126#16 -133755126#15 -133755126#14 -133755126#13 -133755126#12 -133755126#11 -133755126#10 -133755126#9 -133755126#8 -133755126#7 -133755126#6 -133755126#5 -133755126#4 -133755126#3 -133755124"/>
    </vehicle>
    <vehicle id="pass1" type="passenger" depart="1.00">
        <route edges="-236471187#1 236471187#1 -706734274#0 706734276#2 706734276#3 171867136#0 -122612356#1 -122612356#0 374529112#1 -306475939 -133755126#16 -133755126#15 -133755126#14 -133755126#13 -133755126#12 -133755126#11 -133755126#10 -133755126#9 -133755126#8 -133755126#7 -133755126#6 -133755126#5 -186276679#1 -186254736#6"/>
    </vehicle>
    <vehicle id="pass3" type="passenger" depart="3.00">
        <route edges="715685826#2 -715685826#2 -715685826#1 -715685826#0 800610509#5 171867138#0 171867138#1 373896382#3 373896382#4 374529112#0 374529112#1 374529112#2 374529112#3 374533524#5 374533524#6 374533524#0 374533525#0 374533525#1 374533525#2 374533525#3 -158486424#13 -158486424#12 -158486424#11 -158486424#10 -158486424#9 -158486424#8 -158486424#7 -158486424#6 -158486424#5 -158486424#4 -158486424#3 -158486424#2"/>
    </vehicle>
    <vehicle id="pass4" type="passenger" depart="4.00">
        <route edges="-800610510 -306475946#0 186258455#1 186258455#2 -186254736#0 -133755126#11"/>
    </vehicle>
    <vehicle id="pass5" type="passenger" depart="5.00">
        <route edges="-186254736#1 -186254736#0 -133755126#11 -133755126#10 -133755126#9 -133755126#8 -133755126#7 -133755126#6 -133755126#5 -133755126#4 -133755126#3 -133755124 133755133#1"/>
    </vehicle>
    <vehicle id="pass6" type="passenger" depart="6.00">
        <route edges="-133755126#1 -133755126#0 817117729#3 804207589#0 804207591#0 804207591#1 804207591#2 804207591#3 804207591#4 -374530997#1 -374530997#0 761223739 374533525#3 -158486424#13 -158486424#12 -158486424#11 -158486424#10 -158486424#9 -158486424#8 -158486424#7 -158486424#6 -158486424#5 171904516#0 171867126#0 171867126#1 171904517 -171904517"/>
    </vehicle>
    <vehicle id="pass7" type="passenger" depart="7.00">
        <route edges="171904516#0 -171904516#0 158486424#5 158486424#6 158486424#7 158486424#8 158486424#9 158486424#10 158486424#11 158486424#12 171867130#0 171867130#1 171867130#2 171867130#3 374533524#6 374533524#0 374533524#1 374533524#2 374533524#3 374533523#0 374533523#1 -373896382#4 -373896382#3 -373896382#2 -373896382#1 171865797#0"/>
    </vehicle>
    <vehicle id="pass8" type="passenger" depart="8.00">
        <route edges="-186254736#3 -186254736#2 -706318010 133755126#9 133755126#10 133755126#11 133755126#12 133755126#13 133755126#14 133755126#15 133755126#16 306475939 374529112#2 374529112#3 374533524#5 374533524#6 374533524#0 374533525#0 374533525#1 374533525#2 374533525#3 374533525#4 374533525#5 374529118#6 374529123#0 374529123#1 -135530186#4 171870076#0 171870076#1"/>
    </vehicle>
    <vehicle id="pass9" type="passenger" depart="9.00">
        <route edges="374529115 804217356#0 804217356#1 804207585 804207591#4 -374530997#1 -374530997#0 133055393#1 578203893 374533524#2 374533524#3 374533523#0 374533523#1 -122612374#4 -122612374#3 -122612374#2"/>
    </vehicle>
    <vehicle id="pass10" type="passenger" depart="10.00">
        <route edges="374529112#1 374529112#2 374529112#3 374533524#5 374533524#6 374533524#0 374533525#0 374533525#1 374533525#2 374533525#3 -158486424#13 -158486424#12 -158486424#11 -158486424#10 -158486424#9 -158486424#8 -158486424#7 -158486424#6 -171902835#5 171902842#0 171902842#1 171867126#4 171867126#5 -171902835#1 800669877 186262687#2"/>
    </vehicle>
    <vehicle id="pass11" type="passenger" depart="11.00">
        <route edges="-306475948 373896382#4 374529112#0 374529112#1 374529112#2 374529112#3 374533524#5 374533524#6 374533524#0 374533525#0 374533525#1 374533525#2 374533525#3 374533525#4 171870086#0 171870086#1 171870086#2 -171870086#2"/>
    </vehicle>
    <vehicle id="pass12" type="passenger" depart="12.00">
        <route edges="804207589#0 804207589#1 804207589#2 804207589#3 817117729#0 817117729#1 817117729#2 133755126#0 133755126#1 133755126#2 133755126#3 133755126#4 133755126#5 133755126#6 133755126#7 133755126#8 133755126#9 133755126#10 133755126#11 133755126#12 133755126#13 133755126#14 133755126#15 133755126#16 374533523#1 -373896382#4 -373896382#3 -373896382#2 -373896382#1 -373896382#0"/>
    </vehicle>
    <vehicle id="pass13" type="passenger" depart="13.00">
        <route edges="-158486424#9"/>
    </vehicle>
    <vehicle id="pass14" type="passenger" depart="14.00">
        <route edges="374533524#5 374533524#6 374533524#0 374533525#0 374533525#1 374533525#2 374533525#3 374533525#4 171870086#0 171870086#1 171870086#2"/>
    </vehicle>
    <vehicle id="pass15" type="passenger" depart="15.00">
        <route edges="374529112#2 374529112#3 374533524#5 374533524#6 374533524#0 374533525#0 374533525#1 374533525#2 374533525#3 -158486424#13 -158486424#12 -158486424#11 246982749#0"/>
    </vehicle>
    <vehicle id="pass16" type="passenger" depart="16.00">
        <route edges="135530186#7 135530186#8 135530186#9 135530186#10 135530186#11 135530186#12 135530186#13 374529120#1 374529120#2 374529118#2 374529115 804217356#0 804217356#1 804207585 804207591#4 804207591#5"/>
    </vehicle>
    <vehicle id="pass17" type="passenger" depart="17.00">
        <route edges="-706734276#2 -706734276#1 706734275#0 706734275#1 -186263433#2 -186263433#1 -186263433#0 122612374#2 122612374#3 122612374#4 -373896382#4 -373896382#3 -373896382#2 -373896382#1 171865797#0 171865797#1 171865800"/>
    </vehicle>
    <vehicle id="pass18" type="passenger" depart="18.00">
        <route edges="374529123#1 -374529123#1 -374529123#0 374529118#7 374529118#0 374529118#1 374529118#2 374529118#3 374529118#4 133055393#0 761223739 374533525#3 -158486424#13 -158486424#12 -158486424#11 -158486424#10 -158486424#9 -158486424#8 -158486424#7 -158486424#6 -171902835#5 -171902835#4 -171902835#3 171902835#3"/>
    </vehicle>
    <vehicle id="pass19" type="passenger" depart="19.00">
        <route edges="706318010 -706318010 133755126#9 133755126#10 133755126#11 133755126#12 133755126#13 133755126#14 133755126#15 133755126#16 306475939 374529112#2 -171867136#4 -171867136#3 -171867136#2 171867136#2"/>
    </vehicle>
    <vehicle id="pass20" type="passenger" depart="20.00">
        <route edges="186262687#1 -186262687#1 -186262687#0 -706734274#0 706734276#2 706734276#3 171867136#0 -122612356#1 -122612356#0 374529112#1 -306475939 -133755126#16 -133755126#15 -133755126#14 -133755126#13 -133755126#12 -133755126#11 -133755126#10 -133755126#9 -133755126#8"/>
    </vehicle>
    <vehicle id="pass21" type="passenger" depart="21.00">
        <route edges="-186254736#8 -186254736#7 186276679#1 -186254734 133755118#2 133755118#3 133755118#4 133755118#5 588939865 -374530997#0 761223739 374533525#3 -158486424#13 -158486424#12 -158486424#11 -158486424#10 -158486424#9 -158486424#8 -158486424#7 -158486424#6 -158486424#5 -158486424#4 -158486424#3 -158486424#2 -158486424#1 -133755130#5 -133755130#4 -133755130#3 -133755130#2 246985859 -246985859"/>
    </vehicle>
    <vehicle id="pass22" type="passenger" depart="22.00">
        <route edges="-158486424#11 158486424#11 158486424#12 171867130#0 171867130#1 171867130#2 171867130#3 374533524#6 374533524#0 374533524#1 374533524#2 374533524#3 374533523#0 -133755126#16 -133755126#15 -133755126#14 -133755126#13 -133755126#12 186254736#0 -186258455#2 -186258455#1"/>
    </vehicle>
    <vehicle id="pass23" type="passenger" depart="23.00">
        <route edges="-171865797#4 -171865797#3 -171865797#2 -171865797#1 -171865797#0 373896382#1 373896382#2 373896382#3 373896382#4 374529112#0 122612356#0 122612356#1 -171867136#0 -706734276#3 -706734276#2 -288926324#4 -288926324#3 236471193#0 -236471193#0"/>
    </vehicle>
    <vehicle id="pass24" type="passenger" depart="24.00">
        <route edges="171902837#1 171902839#4 171867126#8 706734276#3 706734276#4 706734276#0 -706734276#0"/>
    </vehicle>
    <vehicle id="pass25" type="passenger" depart="25.00">
        <route edges="-706734275#0 -706734276#0 -706734276#4 -706734276#3 -171867126#8 -171867126#7 -171867126#6 -171867126#5 -171867126#4 -171867126#3 -171867126#2 -171867126#1 -171867126#0 171904516#1 171904516#2 -171904523"/>
    </vehicle>
    <vehicle id="pass26" type="passenger" depart="26.00">
        <route edges="-186263433#1 -186263433#0 -122612374#1 -122612374#0 -122612356#0 374529112#1 -306475939 -133755126#16 -133755126#15 -133755126#14 -133755126#13 -133755126#12 -133755126#11 -133755126#10 -133755126#9 -133755126#8 -133755126#7 -133755126#6 -133755126#5 -133755126#4 -133755126#3 -133755126#2 -133755126#1 -133755126#0 817117729#3 804207589#0 804207589#1 804207589#2 804207590#0 804207590#1 -803757987 803757988#2"/>
    </vehicle>
    <vehicle id="pass27" type="passenger" depart="27.00">
        <route edges="171902843#0 -171867126#6 171902835#2 171902835#3 171902841#0 -171902829#1 171902829#1"/>
    </vehicle>
    <vehicle id="pass28" type="passenger" depart="28.00">
        <route edges="-171902835#5 171902842#0 171902842#1 171867126#4 171867126#5 171867126#6 171867126#7 171867126#8 -706734276#2 -288926324#4 -288926324#3 236471193#0 236471193#1"/>
    </vehicle>
    <vehicle id="pass29" type="passenger" depart="29.00">
        <route edges="-171902831#2 -171902831#1 -171902831#0 -171867136#2 -171867136#1 -122612356#1 -122612356#0 374529112#1 -306475939 374533523#1 -373896382#4 -373896382#3 -171867138#1 -171867138#0 -800610509#5 715685826#0 -715685826#0"/>
    </vehicle>
    <vehicle id="pass30" type="passenger" depart="30.00">
        <route edges="804217356#9 804207588 804207591#1 804207591#2 804207591#3 804207591#4 -374530997#1 -374530997#0 761223739 374533525#3 -158486424#13 -158486424#12 -158486424#11 -158486424#10 -158486424#9 -158486424#8 -158486424#7 -158486424#6 -158486424#5 171904516#0"/>
    </vehicle>
    <vehicle id="pass31" type="passenger" depart="31.00">
        <route edges="158486424#8 158486424#9 158486424#10 158486424#11 158486424#12 171867130#0 171867130#1 171867130#2 171867130#3 374533524#6 374533524#0 374533524#1 374533524#2 374533524#3 374533523#0 -133755126#16 -133755126#15 -133755126#14 -133755126#13 -133755126#12 -133755126#11 -133755126#10 -133755126#9 706318010 186254736#2 186254736#3 -186258456 186258456"/>
    </vehicle>
    <vehicle id="pass32" type="passenger" depart="32.00">
        <route edges="374533524#2 374533524#3 374533524#4 374533524#5 374533524#6 374533524#0 374533525#0 374533525#1 374533525#2 374533525#3 374533525#4 374533525#5 374529118#6 374529118#7 374529118#0 374529118#1 374529118#2 374529115 804217356#0 804217356#1 804217356#2 804217356#3 804217356#4 804217356#5 306475942#0 306475942#1 306475943#0 306475944#0"/>
    </vehicle>
    <vehicle id="pass33" type="passenger" depart="33.00">
        <route edges="-186254736#9 186276679#0 186276679#1 133755126#5 133755126#6 133755126#7 133755126#8 133755126#9 133755126#10 133755126#11 133755126#12 133755126#13 -133755126#13"/>
    </vehicle>
    <vehicle id="pass34" type="passenger" depart="34.00">
        <route edges="-306475941#1 306475940#1 804217356#4 804207586 804207591#3 804207591#4 -374530997#1 -374530997#0 761223739 374533525#3 -158486424#13 -158486424#12 -158486424#11 -158486424#10 -158486424#9 -158486424#8 -158486424#7 171902839#0 171902839#1 171902839#2 171902839#3 171902839#4 171867126#8 706734276#3 706734276#4 706734276#0 706734275#0 706734275#1 -186263433#2"/>
    </vehicle>
    <vehicle id="pass35" type="passenger" depart="35.00">
        <route edges="-171904523 171904516#6 171904516#7 158486424#2 158486424#3 158486424#4 158486424#5 158486424#6 158486424#7 158486424#8 158486424#9 158486424#10 158486424#11 158486424#12 158486424#13 374533525#4 374533525#5 374529118#6 374529118#7 374529118#0 374529122#0 374529122#1 374532416#0 -135530186#12 803758022"/>
    </vehicle>
    <vehicle id="pass36" type="passenger" depart="36.00">
        <route edges="706734276#1 706734276#2 -171867126#8 -171902839#4 -171902839#3 -171902839#2 -171902839#1 -171902839#0 158486424#7 158486424#8 158486424#9 158486424#10 158486424#11 158486424#12 158486424#13 374533525#4 374533525#5 374529118#6 374529118#7 374529118#0 374529118#1 374529118#2 374529115 804217356#0 804217356#1 804217356#2 804217356#3 804217356#4 804217356#5 306475942#0 -306475942#0"/>
    </vehicle>
    <vehicle id="pass38" type="passenger" depart="38.00">
        <route edges="800610509#3 -800610509#3 -306475945 -186258462#1 -186258462#0 -133755126#14 -133755126#13 -133755126#12 -133755126#11 -133755126#10 -133755126#9 -133755126#8 -133755126#7 -133755126#6 -133755126#5 -133755126#4 -133755126#3 -133755126#2 -133755126#1 133755117#0"/>
    </vehicle>
    <vehicle id="pass39" type="passenger" depart="39.00">
        <route edges="-186263426#1 -186263426#0 186262687#3 186262687#4 186262687#5 186262687#6 186262687#7 186262687#8 186262687#9 186262687#10 186262687#11 -186262687#11"/>
    </vehicle>
    <vehicle id="pass40" type="passenger" depart="40.00">
        <route edges="171865797#2 -171865797#2 -171865797#1 -171865797#0 373896382#1 373896382#2 373896382#3 373896382#4 374529112#0 122612356#0 122612356#1 -171867136#0 -706734276#3 -706734276#2 706734274#0 186262687#0 186262687#1 186262687#2 186263426#0 -186263426#0"/>
    </vehicle>
    <vehicle id="pass41" type="passenger" depart="41.00">
        <route edges="171867135#0 -171867135#0 -800384377 715685826#1 715685826#2 715685826#3"/>
    </vehicle>
    <vehicle id="pass42" type="passenger" depart="42.00">
        <route edges="-715685826#3 -715685826#2 -715685826#1 -715685826#0 -800610509#4 -800610509#3 -306475945 -186258462#1 -186258462#0 -133755126#14 -133755126#13 -133755126#12 -133755126#11 -133755126#10 -133755126#9 706318010 186254736#2 186254736#3 -186254736#3"/>
    </vehicle>
    <vehicle id="pass43" type="passenger" depart="43.00">
        <route edges="817117729#2 817117729#3 804207589#0 804207591#0 804207591#1 804207591#2 804207591#3 804207591#4 804207591#5 374529118#4 374529118#5 374529118#6 374529118#7 374529118#0 374529122#0 374529122#1 374532416#0 -135530186#12 -135530186#11 -135530186#10 135530186#10"/>
    </vehicle>
    <vehicle id="pass44" type="passenger" depart="44.00">
        <route edges="-158486424#8 158486424#8 158486424#9 158486424#10 158486424#11 158486424#12 171867130#0 171867130#1 171867130#2 171867130#3 374533524#6 374533524#0 374533524#1 374533524#2 374533524#3 374533523#0 -133755126#16 -133755126#15 -133755126#14 -133755126#13 -133755126#12 -133755126#11 -133755126#10 -133755126#9"/>
    </vehicle>
    <vehicle id="pass45" type="passenger" depart="45.00">
        <route edges="-171867126#4 -171902842#1 -171902842#0 171902835#5 158486424#6 171902839#0 171902839#1 171902839#2"/>
    </vehicle>
    <vehicle id="pass46" type="passenger" depart="46.00">
        <route edges="306475946#4 -306475946#4 -306475946#3 -306475946#2 186258459 -186254736#2 -706318010 -133755126#8 -133755126#7 -133755126#6 -133755126#5 -133755126#4 -133755126#3 -133755126#2 -133755126#1 -133755126#0 817117729#3 804207589#0 804207589#1 804207589#2 804207590#0 804207590#1 -803757987"/>
    </vehicle>
    <vehicle id="pass47" type="passenger" depart="47.00">
        <route edges="-135530186#12 135530186#12 135530186#13 374529120#1 374529120#2 374529118#2 374529118#3 374529118#4 133055393#0 133055393#1 578203893 374533524#2 374533524#3 374533523#0 374533523#1 -373896382#4 -373896382#3 -171867138#1 -171867138#0 -800610509#5 715685826#0 715685826#1 715685826#2 -715685826#2"/>
    </vehicle>
    <vehicle id="pass48" type="passenger" depart="48.00">
        <route edges="817117729#1 817117729#2 817117729#3 804207589#0 804207591#0 804207591#1 804207591#2 804207591#3 804207591#4 -374530997#1 -374530997#0 761223739 374533525#3 -158486424#13 -158486424#12 -158486424#11 158486424#11"/>
    </vehicle>
    <vehicle id="pass49" type="passenger" depart="49.00">
        <route edges="804207591#3 804207591#4 -374530997#1 -588939865 -133755118#5 -133755118#4 -133755118#3 -706318011 186254733#1 133755126#6 133755126#7 133755126#8 706318010"/>
    </vehicle>
    <vehicle id="pass50" type="passenger" depart="50.00">
        <route edges="-133755117#1 -133755117#0 133755126#1 133755126#2 133755126#3 133755126#4 133755126#5 133755126#6 133755126#7 133755126#8 133755126#9 133755126#10 133755126#11 133755126#12 133755126#13 133755126#14 133755126#15 133755126#16 374533523#1 374529112#0 122612356#0 122612374#0 -706734275#3 186263438#0 186263438#1"/>
    </vehicle>
    <vehicle id="pass51" type="passenger" depart="51.00">
        <route edges="186254736#4 186254736#5 186254736#6 186276679#1 -186254734 133755118#2 133755118#3 133755118#4 133755118#5 588939865 -374530997#0 761223739 374533525#3 -158486424#13 -158486424#12 -158486424#11 -158486424#10 -158486424#9 -158486424#8 -158486424#7 -158486424#6 -158486424#5 158486424#5"/>
    </vehicle>
    <vehicle id="pass52" type="passenger" depart="52.00">
        <route edges="-186263433#1 186263433#1 186263433#2 -706734275#1 -706734275#0 -706734276#0 -706734276#4 -706734276#3 -171867126#8 -171867126#7 -171867126#6 -171867126#5 -171867126#4 -171867126#3 -171867126#2 -171867126#1 -171867126#0 171904516#1"/>
    </vehicle>
    <vehicle id="pass53" type="passenger" depart="53.00">
        <route edges="-171867126#5 -171867126#4 -171902842#1 -171902842#0 171902835#5 158486424#6 158486424#7 158486424#8 158486424#9 158486424#10 158486424#11 158486424#12 158486424#13 374533525#4 374533525#5 374529118#6 374529118#7 374529118#0 374529118#1 374529118#2 374529115 804217356#0 804217356#1 804217356#2 804217356#3 804217356#4 804217356#5 804217356#6 804217356#7 804217356#8 -306475943#2 -306475944#1 -804207581"/>
    </vehicle>
    <vehicle id="pass54" type="passenger" depart="54.00">
        <route edges="-805215211 171904516#7 158486424#2 158486424#3 158486424#4 158486424#5 158486424#6 158486424#7 158486424#8 158486424#9 158486424#10 158486424#11 158486424#12 158486424#13 374533525#4 374533525#5 374529118#6 374529118#7 374529118#0 374529118#1 374529118#2 374529115 804217356#0 804217356#1 804217356#2 804217356#3 804217356#4 804217356#5 804217356#6 804217356#7 804217356#8 804217356#9 804207588"/>
    </vehicle>
    <vehicle id="pass55" type="passenger" depart="55.00">
        <route edges="706734276#0 706734276#1 706734274#0 186262687#0 186262687#1 186262687#2 186263426#0 -186263426#0"/>
    </vehicle>
    <vehicle id="pass56" type="passenger" depart="56.00">
        <route edges="133755126#3 133755126#4 -186254734 133755118#2 133755118#3 133755118#4 133755118#5 588939865 -374530997#0 761223739 374533525#3 -158486424#13 -158486424#12 -158486424#11 -158486424#10 -158486424#9 -158486424#8 -158486424#7 171902839#0 171902839#1 171902839#2 -171902839#2"/>
    </vehicle>
    <vehicle id="pass57" type="passenger" depart="57.00">
        <route edges="800610509#2 800610509#3 800610509#4 800610509#5 171867138#0 171867138#1 373896382#3 373896382#4 374529112#0 122612356#0 122612374#0 -706734275#3 -706734275#2 -706734275#1 706734275#1"/>
    </vehicle>
    <vehicle id="pass58" type="passenger" depart="58.00">
        <route edges="-246989087#0 171867135#1 373896382#2 373896382#3 373896382#4 374529112#0 374529112#1 374529112#2 374529112#3 374533524#5 374533524#6 374533524#0 374533525#0 374533525#1 374533525#2 374533525#3 -158486424#13 -158486424#12 -158486424#11 -158486424#10 -158486424#9 -158486424#8 -158486424#7 -158486424#6 -158486424#5 171904516#0"/>
    </vehicle>
    <vehicle id="pass59" type="passenger" depart="59.00">
        <route edges="171870084#2 -171870086#1 -171870086#0"/>
    </vehicle>
    <vehicle id="pass60" type="passenger" depart="60.00">
        <route edges="288926324#0 288926324#1 288926324#2 288926324#3 288926324#4 706734276#2 -171867126#8 -171902839#4 -171902839#3 -171902839#2 -171902839#1 -171902839#0 158486424#7"/>
    </vehicle>
    <vehicle id="pass61" type="passenger" depart="61.00">
        <route edges="306475942#1 -306475942#1 -306475942#0 804217356#6 804207587 804207591#2 804207591#3 804207591#4 -374530997#1 -374530997#0 761223739 374533525#3 -158486424#13 -158486424#12 158486424#12"/>
    </vehicle>
    <vehicle id="pass62" type="passenger" depart="62.00">
        <route edges="-122612356#0 374529112#1 -306475939 -133755126#16 -133755126#15 186258462#0 186258462#1 306475945 -306475945"/>
    </vehicle>
    <vehicle id="pass64" type="passenger" depart="64.00">
        <route edges="706734276#3 -706734276#3 -171867126#8 -171902839#4 -171902839#3 -171902839#2 -171902839#1 -171902839#0 158486424#7 158486424#8 158486424#9 158486424#10 158486424#11 158486424#12 158486424#13 374533525#4 374533525#5 374529118#6 374529118#7 374529118#0 374529122#0 374529122#1 374532416#0 374532416#1"/>
    </vehicle>
    <vehicle id="pass65" type="passenger" depart="65.00">
        <route edges="-288926324#3 288926324#3 288926324#4 706734276#2 706734276#3 171867136#0 -122612356#1 -122612356#0 374529112#1 -306475939 -133755126#16 -133755126#15 -133755126#14 -133755126#13 -133755126#12 -133755126#11 -133755126#10 -133755126#9 -133755126#8 -133755126#7 -133755126#6 -133755126#5 -133755126#4 -133755126#3 -133755124 133755133#1 -133755133#1"/>
    </vehicle>
    <vehicle id="pass66" type="passenger" depart="66.00">
        <route edges="706734276#2 706734276#3 171867136#0 -122612356#1 -122612356#0 374529112#1 -306475939 -133755126#16 -133755126#15 -133755126#14 -133755126#13 -133755126#12 -133755126#11 -133755126#10 -133755126#9 -133755126#8 -133755126#7 -133755126#6 -133755126#5 -133755126#4 -133755126#3 -133755126#2 -133755126#1 -133755126#0 817117729#3 804207589#0 804207589#1 804207589#2 804207590#0 804207590#1 804207590#2 804207590#3 804207584#0"/>
    </vehicle>
    <vehicle id="pass67" type="passenger" depart="67.00">
        <route edges="-158486424#4 158486424#4 158486424#5 158486424#6 158486424#7 158486424#8 158486424#9 158486424#10 158486424#11 158486424#12 158486424#13 374533525#4 374533525#5 374529118#6 374529118#7 374529118#0 374529118#1 374529118#2 374529118#3 374529118#4 133055393#0 374530997#0 -588939865 -133755118#5 -133755118#4 -133755118#3 -133755118#2 -133755118#1 -133755118#0 133755126#2"/>
    </vehicle>
    <vehicle id="pass68" type="passenger" depart="68.00">
        <route edges="-135530186#4 135530186#4 -374529123#1 -374529123#0 374529118#7 374529118#0 374529118#1 374529118#2 374529118#3 374529118#4 133055393#0 133055393#1 578203893 374533524#2 374533524#3 374533523#0 306475939"/>
    </vehicle>
    <vehicle id="pass69" type="passenger" depart="69.00">
        <route edges="288926324#3 288926324#4 706734276#2 706734276#3 171867136#0 171867136#1 171867136#2 -171867136#2"/>
    </vehicle>
    <vehicle id="pass70" type="passenger" depart="70.00">
        <route edges="133755117#3 -133755117#1 -133755117#0 133755126#1 133755126#2 133755126#3 133755126#4 133755126#5 133755126#6 133755126#7 133755126#8 133755126#9 133755126#10 133755126#11 133755126#12 133755126#13 133755126#14 133755126#15 133755126#16 374533523#1 -373896382#4 -373896382#3 -373896382#2 -373896382#1 171865797#0 171865797#1 171865797#2 171865797#3 171865797#4"/>
    </vehicle>
    <vehicle id="pass71" type="passenger" depart="71.00">
        <route edges="-186263426#1 -186263426#0 -186262687#2 -186262687#1 -186262687#0 -706734274#0 -706734276#1 706734275#0 706734275#1 706734275#2 706734275#3"/>
    </vehicle>
    <vehicle id="pass72" type="passenger" depart="72.00">
        <route edges="-800669863 158486424#4 158486424#5 158486424#6 158486424#7 158486424#8 158486424#9 158486424#10 158486424#11 158486424#12 158486424#13 374533525#4 374533525#5 374529118#6 374529118#7 374529118#0 374529118#1 374529118#2 374529118#3 374529118#4 133055393#0 374530997#0 -588939865 -133755118#5 -133755118#4 -133755118#3 -706318011 -186254733#0"/>
    </vehicle>
    <vehicle id="pass73" type="passenger" depart="73.00">
        <route edges="135530186#9 135530186#10 135530186#11 135530186#12 135530186#13 374529120#1 374529120#2 374529118#2 374529118#3 374529118#4 133055393#0 761223739 374533525#3 -158486424#13 -158486424#12 -158486424#11 246982749#0"/>
    </vehicle>
    <vehicle id="pass74" type="passenger" depart="74.00">
        <route edges="-171904517 -171867126#1 -171867126#0 -171904516#0 158486424#5 158486424#6 158486424#7 158486424#8 158486424#9 158486424#10 158486424#11 158486424#12 158486424#13 374533525#4 374533525#5 374529118#6 374529118#7 374529118#0 374529118#1 374529118#2 374529115 804217356#0 804217356#1 804217356#2 804217356#3 -306475940#1 -306475941#0"/>
    </vehicle>
    <vehicle id="pass75" type="passenger" depart="75.00">
        <route edges="817117729#0 817117729#1 817117729#2 817117729#3 804207589#0 804207591#0 804207591#1 804207591#2 804207591#3 804207591#4 -374530997#1 -374530997#0 761223739 374533525#3 -158486424#13 -158486424#12 -158486424#11 -158486424#10 -158486424#9 -158486424#8 -158486424#7 -158486424#6 -158486424#5 171904516#0 171867126#0 171867126#1 171904517"/>
    </vehicle>
    <vehicle id="pass76" type="passenger" depart="76.00">
        <route edges="-803757988#2 803757988#2 803757990 804217356#11 804207589#2 804207589#3 817117729#0 817117729#1 817117729#2 817117729#3 804207589#0 804207591#0 804207591#1 804207591#2 804207591#3 804207591#4 804207591#5 374529118#4 374529118#5 374529118#6 374529123#0 374529123#1 -135530186#4 135530186#4"/>
    </vehicle>
    <vehicle id="pass77" type="passenger" depart="77.00">
        <route edges="-171867130#2 171867130#2 171867130#3 374533524#6 374533524#0 374533524#1 374533524#2 374533524#3 374533523#0 -133755126#16 -133755126#15 -133755126#14 -133755126#13 -133755126#12 -133755126#11 -133755126#10 -133755126#9 -133755126#8 -133755126#7 -133755126#6 -133755126#5 -186276679#1 186254736#7 -186254736#7"/>
    </vehicle>
    <vehicle id="pass78" type="passenger" depart="78.00">
        <route edges="-306475947#1 -306475947#0 -306475946#4 -306475946#3 -306475946#2 186258459 -186254736#2 -706318010 133755126#9 133755126#10 133755126#11 133755126#12 133755126#13 133755126#14 133755126#15 133755126#16 306475939 374529112#2 374529112#3 374533524#5 374533524#6 374533524#0 374533525#0 374533525#1 374533525#2 374533525#3 374533525#4 374533525#5 374529118#6 374529123#0 374529123#1 -135530186#4 171870076#0 171870076#1"/>
    </vehicle>
    <vehicle id="pass79" type="passenger" depart="79.00">
        <route edges="-186258452 186258452 -186254736#4"/>
    </vehicle>
    <vehicle id="pass80" type="passenger" depart="80.00">
        <route edges="-135530186#6 -135530186#5 -374529123#1 -374529123#0 374529118#7 374529118#0 374529118#1 374529118#2 374529118#3 374529118#4 133055393#0 761223739 374533525#3 -158486424#13 -158486424#12 -158486424#11 -158486424#10 -158486424#9 -158486424#8 -158486424#7 -158486424#6 -171902835#5 -171902835#4 171902841#0"/>
    </vehicle>
    <vehicle id="pass81" type="passenger" depart="81.00">
        <route edges="-186254736#9 186276679#0 186276679#1 133755126#5 133755126#6 133755126#7 133755126#8 133755126#9 133755126#10 133755126#11 133755126#12 133755126#13 133755126#14 133755126#15 133755126#16 374533523#1 -373896382#4 -373896382#3 -373896382#2 -373896382#1 171865797#0 171865797#1 171865797#2 -800384378 800384380"/>
    </vehicle>
    <vehicle id="pass82" type="passenger" depart="82.00">
        <route edges="588939865 -374530997#0 761223739 374533525#3 374533525#4 374533525#5 374529118#6 374529123#0 374529123#1 -135530186#4"/>
    </vehicle>
    <vehicle id="pass83" type="passenger" depart="83.00">
        <route edges="-186258462#0 -133755126#14 -133755126#13 -133755126#12 -133755126#11 -133755126#10 -133755126#9 706318010 186254736#2"/>
    </vehicle>
    <vehicle id="pass84" type="passenger" depart="84.00">
        <route edges="-186254733#1 186254733#1 133755126#6 133755126#7 133755126#8 133755126#9 133755126#10 133755126#11 133755126#12 133755126#13 133755126#14 133755126#15 133755126#16 374533523#1 -373896382#4 -373896382#3 -171867138#1 -171867138#0"/>
    </vehicle>
    <vehicle id="pass85" type="passenger" depart="85.00">
        <route edges="803757988#1 803757988#2 803757990 804217356#11 804207589#2 804207589#3 817117729#0 817117729#1 817117729#2 817117729#3 804207589#0 804207591#0 804207591#1 804207591#2 804207591#3 804207591#4 -374530997#1 -374530997#0 761223739 374533525#3 -158486424#13 171867130#0 171867130#1 171867130#2 171867130#3"/>
    </vehicle>
    <vehicle id="pass86" type="passenger" depart="86.00">
        <route edges="133755117#1 133755117#2 -133755133#2 -133755133#1 133755124 133755126#3 133755126#4 133755126#5 133755126#6 133755126#7 133755126#8 706318010 186254736#2 -186258459 306475946#2 306475946#3 306475946#4"/>
    </vehicle>
    <vehicle id="pass87" type="passenger" depart="87.00">