<?xml version="1.0" encoding="UTF-8"?>

<!-- generated on Sat Nov 28 08:02:42 2020 by Eclipse SUMO netedit Version 1.7.0
<configuration xmlns:xsi="http://www.w3.org/2001/XMLSchema-instance" xsi:noNamespaceSchemaLocation="http://sumo.dlr.de/xsd/netconvertConfiguration.xsd">

    <input>
        <sumo-net-file value="map.net.xml"/>
    </input>

    <output>
        <output-file value="/home/shashwath/Sumo/mini_proj/openStreetMap/reduced_map.net.xml"/>
    </output>

    <processing>
        <geometry.min-radius.fix.railways value="false"/>
        <geometry.max-grade.fix value="false"/>
        <offset.disable-normalization value="true"/>
        <lefthand value="true"/>
    </processing>

    <junctions>
        <no-turnarounds value="false"/>
        <junctions.corner-detail value="5"/>
        <junctions.limit-turn-speed value="5.5"/>
        <rectangular-lane-cut value="false"/>
    </junctions>

    <pedestrian>
        <walkingareas value="true"/>
    </pedestrian>

    <report>
        <aggregate-warnings value="5"/>
    </report>

</configuration>
-->

<net version="1.6" junctionCornerDetail="5" limitTurnSpeed="5.50" xmlns:xsi="http://www.w3.org/2001/XMLSchema-instance" xsi:noNamespaceSchemaLocation="http://sumo.dlr.de/xsd/net_file.xsd">

    <location netOffset="-475171.97,-1474039.92" convBoundary="0.00,0.00,11669.14,3506.48" origBoundary="74.770726,13.333618,74.878474,13.365388" projParameter="+proj=utm +zone=43 +ellps=WGS84 +datum=WGS84 +units=m +no_defs"/>

    <type id="highway.bridleway" priority="1" numLanes="1" speed="2.78" allow="pedestrian" oneway="1" width="2.00"/>
    <type id="highway.bus_guideway" priority="1" numLanes="1" speed="27.78" allow="bus" oneway="1"/>
    <type id="highway.cycleway" priority="1" numLanes="1" speed="8.33" allow="bicycle" oneway="0" width="1.00"/>
    <type id="highway.footway" priority="1" numLanes="1" speed="2.78" allow="pedestrian" oneway="1" width="2.00"/>
    <type id="highway.ford" priority="1" numLanes="1" speed="2.78" allow="army" oneway="0"/>
    <type id="highway.living_street" priority="2" numLanes="1" speed="2.78" disallow="tram rail_urban rail rail_electric rail_fast ship" oneway="0"/>
    <type id="highway.motorway" priority="14" numLanes="2" speed="39.44" allow="private emergency authority army vip passenger hov taxi bus coach delivery truck trailer motorcycle evehicle custom1 custom2" oneway="1"/>
    <type id="highway.motorway_link" priority="9" numLanes="1" speed="22.22" allow="private emergency authority army vip passenger hov taxi bus coach delivery truck trailer motorcycle evehicle custom1 custom2" oneway="1"/>
    <type id="highway.path" priority="1" numLanes="1" speed="2.78" allow="pedestrian bicycle" oneway="1" width="2.00"/>
    <type id="highway.pedestrian" priority="1" numLanes="1" speed="2.78" allow="pedestrian" oneway="1" width="2.00"/>
    <type id="highway.primary" priority="12" numLanes="2" speed="27.78" disallow="tram rail_urban rail rail_electric rail_fast ship" oneway="0"/>
    <type id="highway.primary_link" priority="7" numLanes="1" speed="22.22" disallow="tram rail_urban rail rail_electric rail_fast ship" oneway="0"/>
    <type id="highway.raceway" priority="15" numLanes="2" speed="83.33" allow="vip" oneway="0"/>
    <type id="highway.residential" priority="3" numLanes="1" speed="13.89" disallow="tram rail_urban rail rail_electric rail_fast ship" oneway="0"/>
    <type id="highway.secondary" priority="11" numLanes="1" speed="27.78" disallow="tram rail_urban rail rail_electric rail_fast ship" oneway="0"/>
    <type id="highway.secondary_link" priority="6" numLanes="1" speed="22.22" disallow="tram rail_urban rail rail_electric rail_fast ship" oneway="0"/>
    <type id="highway.service" priority="1" numLanes="1" speed="5.56" allow="pedestrian delivery bicycle" oneway="0"/>
    <type id="highway.stairs" priority="1" numLanes="1" speed="1.39" allow="pedestrian" oneway="1" width="2.00"/>
    <type id="highway.step" priority="1" numLanes="1" speed="1.39" allow="pedestrian" oneway="1" width="2.00"/>
    <type id="highway.steps" priority="1" numLanes="1" speed="1.39" allow="pedestrian" oneway="1" width="2.00"/>
    <type id="highway.tertiary" priority="10" numLanes="1" speed="22.22" disallow="tram rail_urban rail rail_electric rail_fast ship" oneway="0"/>
    <type id="highway.tertiary_link" priority="5" numLanes="1" speed="22.22" disallow="tram rail_urban rail rail_electric rail_fast ship" oneway="0"/>
    <type id="highway.track" priority="1" numLanes="1" speed="5.56" allow="pedestrian motorcycle moped bicycle" oneway="0"/>
    <type id="highway.trunk" priority="13" numLanes="2" speed="27.78" disallow="pedestrian bicycle tram rail_urban rail rail_electric rail_fast ship" oneway="0"/>
    <type id="highway.trunk_link" priority="8" numLanes="1" speed="22.22" disallow="pedestrian bicycle tram rail_urban rail rail_electric rail_fast ship" oneway="0"/>
    <type id="highway.unclassified" priority="4" numLanes="1" speed="13.89" disallow="tram rail_urban rail rail_electric rail_fast ship" oneway="0"/>
    <type id="highway.unsurfaced" priority="1" numLanes="1" speed="8.33" disallow="tram rail_urban rail rail_electric rail_fast ship" oneway="0"/>
    <type id="railway.highspeed" priority="21" numLanes="1" speed="69.44" allow="rail_fast" oneway="1"/>
    <type id="railway.light_rail" priority="19" numLanes="1" speed="27.78" allow="rail_urban" oneway="1"/>
    <type id="railway.preserved" priority="16" numLanes="1" speed="27.78" allow="rail" oneway="1"/>
    <type id="railway.rail" priority="20" numLanes="1" speed="44.44" allow="rail" oneway="1"/>
    <type id="railway.subway" priority="18" numLanes="1" speed="27.78" allow="rail_urban" oneway="1"/>
    <type id="railway.tram" priority="17" numLanes="1" speed="13.89" allow="tram" oneway="1"/>

    <edge id=":1369614871_0" function="internal">
        <lane id=":1369614871_0_0" index="0" disallow="tram rail_urban rail rail_electric rail_fast ship" speed="6.33" length="9.04" shape="2353.94,1518.18 2351.43,1518.20 2349.60,1519.04 2348.45,1520.69 2347.97,1523.15"/>
    </edge>
    <edge id=":1369614871_1" function="internal">
        <lane id=":1369614871_1_0" index="0" disallow="tram rail_urban rail rail_electric rail_fast ship" speed="13.89" length="14.38" shape="2353.94,1518.18 2339.72,1516.04"/>
    </edge>
    <edge id=":1369614871_2" function="internal">
        <lane id=":1369614871_2_0" index="0" disallow="tram rail_urban rail rail_electric rail_fast ship" speed="13.89" length="14.27" shape="2340.26,1512.88 2354.37,1515.01"/>
    </edge>
    <edge id=":1369614871_3" function="internal">
        <lane id=":1369614871_3_0" index="0" disallow="tram rail_urban rail rail_electric rail_fast ship" speed="8.39" length="14.29" shape="2340.26,1512.88 2343.80,1514.04 2346.26,1516.14 2347.65,1519.17 2347.97,1523.15"/>
    </edge>
    <edge id=":1369614871_4" function="internal">
        <lane id=":1369614871_4_0" index="0" disallow="tram rail_urban rail rail_electric rail_fast ship" speed="3.65" length="2.57" shape="2340.26,1512.88 2341.31,1513.87 2341.57,1514.73 2341.43,1514.92"/>
    </edge>
    <edge id=":1369614871_8" function="internal">
        <lane id=":1369614871_8_0" index="0" disallow="tram rail_urban rail rail_electric rail_fast ship" speed="3.65" length="2.10" shape="2341.43,1514.92 2341.04,1515.45 2339.72,1516.04"/>
    </edge>
    <edge id=":1369614871_5" function="internal">
        <lane id=":1369614871_5_0" index="0" disallow="tram rail_urban rail rail_electric rail_fast ship" speed="6.97" length="9.56" shape="2344.77,1522.99 2344.57,1520.29 2343.66,1518.23 2342.05,1516.81 2339.72,1516.04"/>
    </edge>
    <edge id=":1369614871_6" function="internal">
        <lane id=":1369614871_6_0" index="0" disallow="tram rail_urban rail rail_electric rail_fast ship" speed="7.86" length="4.33" shape="2344.77,1522.99 2345.54,1519.04 2345.72,1518.79"/>
    </edge>
    <edge id=":1369614871_7" function="internal">
        <lane id=":1369614871_7_0" index="0" disallow="tram rail_urban rail rail_electric rail_fast ship" speed="3.65" length="2.10" shape="2344.77,1522.99 2345.63,1521.83 2346.23,1521.57"/>
    </edge>
    <edge id=":1369614871_9" function="internal">
        <lane id=":1369614871_9_0" index="0" disallow="tram rail_urban rail rail_electric rail_fast ship" speed="7.86" length="10.19" shape="2345.72,1518.79 2347.40,1516.39 2350.34,1515.05 2354.37,1515.01"/>
    </edge>
    <edge id=":1369614871_10" function="internal">
        <lane id=":1369614871_10_0" index="0" disallow="tram rail_urban rail rail_electric rail_fast ship" speed="3.65" length="2.57" shape="2346.23,1521.57 2346.45,1521.47 2347.23,1521.91 2347.97,1523.15"/>
    </edge>
    <edge id=":1369615162_0" function="internal">
        <lane id=":1369615162_0_0" index="0" disallow="tram rail_urban rail rail_electric rail_fast ship" speed="9.63" length="12.33" shape="2243.05,2137.66 2239.19,2138.24 2236.12,2139.29 2233.84,2140.79 2232.36,2142.76"/>
    </edge>
    <edge id=":1369615162_1" function="internal">
        <lane id=":1369615162_1_0" index="0" disallow="tram rail_urban rail rail_electric rail_fast ship" speed="7.50" length="15.82" shape="2243.05,2137.66 2238.67,2137.35 2236.00,2135.56 2235.06,2132.29 2235.83,2127.53"/>
    </edge>
    <edge id=":1369615162_2" function="internal">
        <lane id=":1369615162_2_0" index="0" disallow="tram rail_urban rail rail_electric rail_fast ship" speed="3.65" length="4.67" shape="2243.05,2137.66 2241.78,2136.97 2241.32,2136.20 2241.65,2135.37 2242.78,2134.48"/>
    </edge>
    <edge id=":1369615162_3" function="internal">
        <lane id=":1369615162_3_0" index="0" disallow="tram rail_urban rail rail_electric rail_fast ship" speed="5.76" length="8.77" shape="2238.77,2128.87 2238.34,2131.50 2238.87,2133.31 2240.35,2134.30 2242.78,2134.48"/>
    </edge>
    <edge id=":1369615162_4" function="internal">
        <lane id=":1369615162_4_0" index="0" disallow="tram rail_urban rail rail_electric rail_fast ship" speed="13.89" length="15.32" shape="2238.77,2128.87 2237.48,2132.43 2235.86,2135.93 2234.10,2139.37 2232.36,2142.76"/>
    </edge>
    <edge id=":1369615162_5" function="internal">
        <lane id=":1369615162_5_0" index="0" disallow="tram rail_urban rail rail_electric rail_fast ship" speed="3.66" length="2.23" shape="2238.77,2128.87 2237.54,2129.64 2236.76,2129.67"/>
    </edge>
    <edge id=":1369615162_9" function="internal">
        <lane id=":1369615162_9_0" index="0" disallow="tram rail_urban rail rail_electric rail_fast ship" speed="3.66" length="2.49" shape="2236.76,2129.67 2236.63,2129.67 2236.06,2128.97 2235.83,2127.53"/>
    </edge>
    <edge id=":1369615162_6" function="internal">
        <lane id=":1369615162_6_0" index="0" disallow="tram rail_urban rail rail_electric rail_fast ship" speed="13.89" length="15.21" shape="2229.49,2141.34 2231.22,2137.97 2232.96,2134.55 2234.55,2131.08 2235.83,2127.53"/>
    </edge>
    <edge id=":1369615162_7" function="internal">
        <lane id=":1369615162_7_0" index="0" disallow="tram rail_urban rail rail_electric rail_fast ship" speed="10.78" length="5.70" shape="2229.49,2141.34 2231.44,2138.65 2233.37,2137.28"/>
    </edge>
    <edge id=":1369615162_8" function="internal">
        <lane id=":1369615162_8_0" index="0" disallow="tram rail_urban rail rail_electric rail_fast ship" speed="3.65" length="2.34" shape="2229.49,2141.34 2230.74,2140.62 2231.63,2140.62"/>
    </edge>
    <edge id=":1369615162_10" function="internal">
        <lane id=":1369615162_10_0" index="0" disallow="tram rail_urban rail rail_electric rail_fast ship" speed="10.78" length="9.93" shape="2233.37,2137.28 2234.30,2136.61 2238.08,2135.22 2242.78,2134.48"/>
    </edge>
    <edge id=":1369615162_11" function="internal">
        <lane id=":1369615162_11_0" index="0" disallow="tram rail_urban rail rail_electric rail_fast ship" speed="3.65" length="2.34" shape="2231.63,2140.62 2232.18,2141.33 2232.36,2142.76"/>
    </edge>
    <edge id=":1369615164_0" function="internal">
        <lane id=":1369615164_0_0" index="0" disallow="pedestrian bicycle tram rail_urban rail rail_electric rail_fast ship" speed="4.67" length="7.73" shape="2523.78,2329.82 2526.48,2329.94 2527.55,2329.48 2527.00,2328.46 2524.81,2326.87"/>
    </edge>
    <edge id=":1369615209_0" function="internal">
        <lane id=":1369615209_0_0" index="0" disallow="tram rail_urban rail rail_electric rail_fast ship" speed="13.89" length="0.99" shape="2462.46,2032.84 2462.17,2032.84 2461.96,2032.86 2461.78,2032.95 2461.53,2033.10"/>
    </edge>
    <edge id=":1369615209_1" function="internal">
        <lane id=":1369615209_1_0" index="0" disallow="tram rail_urban rail rail_electric rail_fast ship" speed="3.65" length="1.99" shape="2462.46,2032.84 2461.28,2032.00 2461.05,2031.51"/>
    </edge>
    <edge id=":1369615209_4" function="internal">
        <lane id=":1369615209_4_0" index="0" disallow="tram rail_urban rail rail_electric rail_fast ship" speed="3.65" length="2.69" shape="2461.05,2031.51 2460.90,2031.19 2461.32,2030.41 2462.54,2029.64"/>
    </edge>
    <edge id=":1369615209_2" function="internal">
        <lane id=":1369615209_2_0" index="0" disallow="tram rail_urban rail rail_electric rail_fast ship" speed="7.15" length="2.98" shape="2459.76,2030.44 2460.50,2029.97 2461.06,2029.72 2461.67,2029.63 2462.54,2029.64"/>
    </edge>
    <edge id=":1369615209_3" function="internal">
        <lane id=":1369615209_3_0" index="0" disallow="tram rail_urban rail rail_electric rail_fast ship" speed="3.65" length="2.70" shape="2459.76,2030.44 2461.20,2030.44 2461.98,2030.89 2462.02,2031.25"/>
    </edge>
    <edge id=":1369615209_5" function="internal">
        <lane id=":1369615209_5_0" index="0" disallow="tram rail_urban rail rail_electric rail_fast ship" speed="3.65" length="1.97" shape="2462.02,2031.25 2462.09,2031.77 2461.53,2033.10"/>
    </edge>
    <edge id=":1464088413_0" function="internal">
        <lane id=":1464088413_0_0" index="0" disallow="pedestrian bicycle tram rail_urban rail rail_electric rail_fast ship" speed="8.19" length="4.19" shape="1452.45,1511.23 1452.50,1512.51 1452.74,1513.37 1453.23,1514.16 1454.01,1515.20"/>
        <lane id=":1464088413_0_1" index="1" disallow="pedestrian bicycle tram rail_urban rail rail_electric rail_fast ship" speed="7.81" length="4.19" shape="1449.25,1511.18 1449.17,1512.37 1449.12,1513.22 1449.29,1514.00 1449.87,1514.97"/>
    </edge>
    <edge id=":1464088413_2" function="internal">
        <lane id=":1464088413_2_0" index="0" disallow="pedestrian bicycle tram rail_urban rail rail_electric rail_fast ship" speed="7.83" length="1.24" shape="1446.38,1511.60 1447.62,1511.55"/>
    </edge>
    <edge id=":1464088413_3" function="internal">
        <lane id=":1464088413_3_0" index="0" disallow="pedestrian bicycle tram rail_urban rail rail_electric rail_fast ship" speed="4.88" length="0.80" shape="1446.97,1514.75 1447.76,1514.59"/>
    </edge>
    <edge id=":1464088413_4" function="internal">
        <lane id=":1464088413_4_0" index="0" disallow="pedestrian bicycle tram rail_urban rail rail_electric rail_fast ship" speed="7.83" length="7.68" shape="1447.62,1511.55 1448.50,1511.52 1450.48,1512.09 1452.31,1513.32 1454.01,1515.20"/>
    </edge>
    <edge id=":1464088413_5" function="internal">
        <lane id=":1464088413_5_0" index="0" disallow="pedestrian bicycle tram rail_urban rail rail_electric rail_fast ship" speed="4.88" length="2.25" shape="1447.76,1514.59 1448.57,1514.49 1449.31,1514.57 1449.87,1514.97"/>
    </edge>
    <edge id=":1464088459_0" function="internal">
        <lane id=":1464088459_0_0" index="0" disallow="pedestrian bicycle tram rail_urban rail rail_electric rail_fast ship" speed="27.78" length="9.45" shape="1538.29,1596.37 1532.26,1589.07"/>
        <lane id=":1464088459_0_1" index="1" disallow="pedestrian bicycle tram rail_urban rail rail_electric rail_fast ship" speed="27.78" length="9.45" shape="1540.74,1594.31 1534.74,1587.05"/>
    </edge>
    <edge id=":1464088459_2" function="internal">
        <lane id=":1464088459_2_0" index="0" disallow="pedestrian bicycle tram rail_urban rail rail_electric rail_fast ship" speed="6.09" length="7.79" shape="1540.74,1594.31 1539.12,1592.08 1538.31,1590.19 1538.30,1588.65 1539.10,1587.47"/>
    </edge>
    <edge id=":1464088459_3" function="internal">
        <lane id=":1464088459_3_0" index="0" disallow="pedestrian bicycle tram rail_urban rail rail_electric rail_fast ship" speed="6.07" length="7.80" shape="1541.16,1589.92 1539.84,1590.51 1538.34,1590.22 1536.64,1589.07 1534.74,1587.05"/>
    </edge>
    <edge id=":1464088459_4" function="internal">
        <lane id=":1464088459_4_0" index="0" disallow="tram rail_urban rail rail_electric rail_fast ship" speed="3.65" length="4.67" shape="1541.16,1589.92 1539.72,1590.08 1538.90,1589.72 1538.70,1588.85 1539.10,1587.47"/>
    </edge>
    <edge id=":1464112031_0" function="internal">
        <lane id=":1464112031_0_0" index="0" disallow="tram rail_urban rail rail_electric rail_fast ship" speed="21.86" length="5.85" shape="1557.74,2766.10 1556.30,2767.08 1555.35,2767.80 1554.52,2768.65 1553.46,2770.01"/>
    </edge>
    <edge id=":1464112031_1" function="internal">
        <lane id=":1464112031_1_0" index="0" disallow="tram rail_urban rail rail_electric rail_fast ship" speed="6.51" length="2.00" shape="1553.53,2764.89 1554.04,2766.40 1554.08,2766.81"/>
    </edge>
    <edge id=":1464112031_2" function="internal">
        <lane id=":1464112031_2_0" index="0" disallow="tram rail_urban rail rail_electric rail_fast ship" speed="6.51" length="3.36" shape="1554.08,2766.81 1554.19,2767.76 1554.00,2768.96 1553.46,2770.01"/>
    </edge>
    <edge id=":1464112045_0" function="internal">
        <lane id=":1464112045_0_0" index="0" disallow="pedestrian bicycle tram rail_urban rail rail_electric rail_fast ship" speed="5.81" length="6.95" shape="1630.70,1716.97 1629.69,1714.73 1628.59,1713.27 1627.40,1712.59 1626.11,1712.68"/>
    </edge>
    <edge id=":1464112045_1" function="internal">
        <lane id=":1464112045_1_0" index="0" disallow="pedestrian bicycle tram rail_urban rail rail_electric rail_fast ship" speed="27.78" length="14.87" shape="1630.70,1716.97 1629.18,1712.90 1628.04,1710.15 1626.72,1707.48 1624.68,1703.64"/>
        <lane id=":1464112045_1_1" index="1" disallow="pedestrian bicycle tram rail_urban rail rail_electric rail_fast ship" speed="27.78" length="14.87" shape="1633.71,1715.87 1632.14,1711.67 1630.96,1708.84 1629.61,1706.08 1627.50,1702.13"/>
    </edge>
    <edge id=":1464112045_3" function="internal">
        <lane id=":1464112045_3_0" index="0" disallow="pedestrian bicycle tram rail_urban rail rail_electric rail_fast ship" speed="5.47" length="6.76" shape="1625.03,1709.67 1625.91,1708.97 1626.15,1707.73 1625.74,1705.95 1624.68,1703.64"/>
    </edge>
    <edge id=":1464112045_4" function="internal">
        <lane id=":1464112045_4_0" index="0" disallow="tram rail_urban rail rail_electric rail_fast ship" speed="3.65" length="4.67" shape="1625.03,1709.67 1626.43,1710.02 1627.07,1710.64 1626.97,1711.52 1626.11,1712.68"/>
    </edge>
    <edge id=":1464112055_0" function="internal">
        <lane id=":1464112055_0_0" index="0" disallow="tram rail_urban rail rail_electric rail_fast ship" speed="18.61" length="8.82" shape="1425.02,2137.58 1424.94,2140.19 1425.05,2141.99 1425.49,2143.73 1426.38,2146.19"/>
    </edge>
    <edge id=":1464112055_1" function="internal">
        <lane id=":1464112055_1_0" index="0" disallow="tram rail_urban rail rail_electric rail_fast ship" speed="6.25" length="7.40" shape="1425.02,2137.58 1424.75,2140.27 1424.21,2142.23 1423.39,2143.45 1422.30,2143.93"/>
    </edge>
    <edge id=":1464112055_2" function="internal">
        <lane id=":1464112055_2_0" index="0" disallow="tram rail_urban rail rail_electric rail_fast ship" speed="6.58" length="7.34" shape="1422.01,2140.74 1423.12,2141.01 1424.22,2142.00 1425.30,2143.73 1426.38,2146.19"/>
    </edge>
    <edge id=":1464112055_3" function="internal">
        <lane id=":1464112055_3_0" index="0" disallow="tram rail_urban rail rail_electric rail_fast ship" speed="3.65" length="4.67" shape="1422.01,2140.74 1423.28,2141.43 1423.75,2142.19 1423.42,2143.02 1422.30,2143.93"/>
    </edge>
    <edge id=":1464112095_0" function="internal">
        <lane id=":1464112095_0_0" index="0" disallow="tram rail_urban rail rail_electric rail_fast ship" speed="21.11" length="5.79" shape="1551.89,2781.14 1552.52,2782.72 1553.08,2783.76 1553.79,2784.71 1554.89,2786.02"/>
    </edge>
    <edge id=":1464112095_1" function="internal">
        <lane id=":1464112095_1_0" index="0" disallow="tram rail_urban rail rail_electric rail_fast ship" speed="6.23" length="5.25" shape="1551.89,2781.14 1552.13,2782.31 1551.98,2783.49 1551.44,2784.70 1550.51,2785.92"/>
    </edge>
    <edge id=":1464112150_0" function="internal">
        <lane id=":1464112150_0_0" index="0" disallow="tram rail_urban rail rail_electric rail_fast ship" speed="27.78" length="9.28" shape="1488.99,2624.59 1492.35,2633.24"/>
    </edge>
    <edge id=":1464112150_1" function="internal">
        <lane id=":1464112150_1_0" index="0" disallow="tram rail_urban rail rail_electric rail_fast ship" speed="6.20" length="7.69" shape="1488.99,2624.59 1489.71,2627.23 1489.83,2629.27 1489.35,2630.73 1488.28,2631.60"/>
    </edge>
    <edge id=":1464112150_2" function="internal">
        <lane id=":1464112150_2_0" index="0" disallow="tram rail_urban rail rail_electric rail_fast ship" speed="6.09" length="7.72" shape="1487.05,2628.65 1488.43,2628.49 1489.78,2629.21 1491.08,2630.79 1492.35,2633.24"/>
    </edge>
    <edge id=":1464112150_3" function="internal">
        <lane id=":1464112150_3_0" index="0" disallow="tram rail_urban rail rail_electric rail_fast ship" speed="3.65" length="4.67" shape="1487.05,2628.65 1488.46,2628.92 1489.14,2629.50 1489.08,2630.40 1488.28,2631.60"/>
    </edge>
    <edge id=":1464112151_0" function="internal">
        <lane id=":1464112151_0_0" index="0" disallow="tram rail_urban rail rail_electric rail_fast ship" speed="4.71" length="7.92" shape="789.42,3198.33 786.65,3198.53 785.62,3199.10 786.32,3200.05 788.75,3201.39"/>
    </edge>
    <edge id=":1464112184_0" function="internal">
        <lane id=":1464112184_0_0" index="0" disallow="tram rail_urban rail rail_electric rail_fast ship" speed="7.08" length="9.66" shape="1445.33,2485.43 1443.09,2487.04 1441.75,2488.90 1441.33,2491.03 1441.80,2493.43"/>
    </edge>
    <edge id=":1464112184_1" function="internal">
        <lane id=":1464112184_1_0" index="0" disallow="tram rail_urban rail rail_electric rail_fast ship" speed="3.65" length="4.67" shape="1445.33,2485.43 1443.89,2485.31 1443.16,2484.80 1443.13,2483.90 1443.80,2482.62"/>
    </edge>
    <edge id=":1464112184_2" function="internal">
        <lane id=":1464112184_2_0" index="0" disallow="tram rail_urban rail rail_electric rail_fast ship" speed="6.31" length="9.04" shape="1436.47,2480.10 1437.78,2482.24 1439.44,2483.37 1441.44,2483.50 1443.80,2482.62"/>
    </edge>
    <edge id=":1464112184_3" function="internal">
        <lane id=":1464112184_3_0" index="0" disallow="tram rail_urban rail rail_electric rail_fast ship" speed="27.78" length="14.36" shape="1436.47,2480.10 1441.80,2493.43"/>
    </edge>
    <edge id=":1472168303_0" function="internal">
        <lane id=":1472168303_0_0" index="0" disallow="tram rail_urban rail rail_electric rail_fast ship" speed="3.65" length="4.67" shape="1468.39,-0.52 1469.53,-1.39 1470.42,-1.51 1471.05,-0.87 1471.41,0.52"/>
    </edge>
    <edge id=":1472168460_0" function="internal">
        <lane id=":1472168460_0_0" index="0" disallow="tram rail_urban rail rail_electric rail_fast ship" speed="9.22" length="11.15" shape="2071.16,805.39 2069.88,803.35 2067.94,801.73 2065.34,800.54 2062.07,799.78"/>
    </edge>
    <edge id=":1472168460_1" function="internal">
        <lane id=":1472168460_1_0" index="0" disallow="tram rail_urban rail rail_electric rail_fast ship" speed="27.78" length="14.33" shape="2071.16,805.39 2069.91,801.97 2069.01,798.57 2068.37,795.11 2067.89,791.49"/>
    </edge>
    <edge id=":1472168460_2" function="internal">
        <lane id=":1472168460_2_0" index="0" disallow="tram rail_urban rail rail_electric rail_fast ship" speed="3.65" length="2.34" shape="2071.16,805.39 2071.43,803.98 2072.01,803.30"/>
    </edge>
    <edge id=":1472168460_9" function="internal">
        <lane id=":1472168460_9_0" index="0" disallow="tram rail_urban rail rail_electric rail_fast ship" speed="3.65" length="2.34" shape="2072.01,803.30 2072.91,803.36 2074.11,804.15"/>
    </edge>
    <edge id=":1472168460_3" function="internal">
        <lane id=":1472168460_3_0" index="0" disallow="tram rail_urban rail rail_electric rail_fast ship" speed="27.78" length="13.42" shape="2071.08,791.13 2071.51,794.62 2072.07,797.78 2072.90,800.87 2074.11,804.15"/>
    </edge>
    <edge id=":1472168460_4" function="internal">
        <lane id=":1472168460_4_0" index="0" disallow="tram rail_urban rail rail_electric rail_fast ship" speed="7.61" length="5.74" shape="2071.08,791.13 2070.94,795.50 2070.29,796.71"/>
    </edge>
    <edge id=":1472168460_5" function="internal">
        <lane id=":1472168460_5_0" index="0" disallow="tram rail_urban rail rail_electric rail_fast ship" speed="3.65" length="2.34" shape="2071.08,791.13 2070.41,792.41 2069.66,792.90"/>
    </edge>
    <edge id=":1472168460_10" function="internal">
        <lane id=":1472168460_10_0" index="0" disallow="tram rail_urban rail rail_electric rail_fast ship" speed="7.61" length="9.55" shape="2070.29,796.71 2069.39,798.39 2066.44,799.82 2062.07,799.78"/>
    </edge>
    <edge id=":1472168460_11" function="internal">
        <lane id=":1472168460_11_0" index="0" disallow="tram rail_urban rail rail_electric rail_fast ship" speed="3.65" length="2.34" shape="2069.66,792.90 2068.82,792.59 2067.89,791.49"/>
    </edge>
    <edge id=":1472168460_6" function="internal">
        <lane id=":1472168460_6_0" index="0" disallow="tram rail_urban rail rail_electric rail_fast ship" speed="6.01" length="9.08" shape="2062.55,796.62 2065.14,796.64 2066.90,795.79 2067.81,794.08 2067.89,791.49"/>
    </edge>
    <edge id=":1472168460_7" function="internal">
        <lane id=":1472168460_7_0" index="0" disallow="tram rail_urban rail rail_electric rail_fast ship" speed="10.42" length="14.42" shape="2062.55,796.62 2066.64,797.60 2069.92,799.19 2072.41,801.37 2074.11,804.15"/>
    </edge>
    <edge id=":1472168460_8" function="internal">
        <lane id=":1472168460_8_0" index="0" disallow="tram rail_urban rail rail_electric rail_fast ship" speed="3.65" length="4.67" shape="2062.55,796.62 2063.62,797.59 2063.89,798.44 2063.38,799.17 2062.07,799.78"/>
    </edge>
    <edge id=":1472168464_0" function="internal">
        <lane id=":1472168464_0_0" index="0" disallow="tram rail_urban rail rail_electric rail_fast ship" speed="27.78" length="0.35" shape="2085.37,890.13 2085.32,890.48"/>
    </edge>
    <edge id=":1472168464_1" function="internal">
        <lane id=":1472168464_1_0" index="0" disallow="tram rail_urban rail rail_electric rail_fast ship" speed="3.65" length="2.34" shape="2085.37,890.13 2084.45,891.23 2083.61,891.54"/>
    </edge>
    <edge id=":1472168464_4" function="internal">
        <lane id=":1472168464_4_0" index="0" disallow="tram rail_urban rail rail_electric rail_fast ship" speed="3.65" length="2.34" shape="2083.61,891.54 2082.86,891.06 2082.19,889.78"/>
    </edge>
    <edge id=":1472168464_2" function="internal">
        <lane id=":1472168464_2_0" index="0" disallow="tram rail_urban rail rail_electric rail_fast ship" speed="27.78" length="0.12" shape="2082.18,889.89 2082.19,889.78"/>
    </edge>
    <edge id=":1472168464_3" function="internal">
        <lane id=":1472168464_3_0" index="0" disallow="tram rail_urban rail rail_electric rail_fast ship" speed="3.65" length="2.34" shape="2082.18,889.89 2083.18,888.86 2084.04,888.61"/>
    </edge>
    <edge id=":1472168464_5" function="internal">
        <lane id=":1472168464_5_0" index="0" disallow="tram rail_urban rail rail_electric rail_fast ship" speed="3.65" length="2.34" shape="2084.04,888.61 2084.75,889.15 2085.32,890.48"/>
    </edge>
    <edge id=":1472168471_0" function="internal">
        <lane id=":1472168471_0_0" index="0" disallow="tram rail_urban rail rail_electric rail_fast ship" speed="3.94" length="2.13" shape="2159.05,1011.51 2158.81,1011.00 2158.46,1010.64 2158.00,1010.44 2157.43,1010.40"/>
    </edge>
    <edge id=":1472168471_1" function="internal">
        <lane id=":1472168471_1_0" index="0" disallow="tram rail_urban rail rail_electric rail_fast ship" speed="3.65" length="2.00" shape="2159.05,1011.51 2159.45,1010.12 2159.85,1009.73"/>
    </edge>
    <edge id=":1472168471_4" function="internal">
        <lane id=":1472168471_4_0" index="0" disallow="tram rail_urban rail rail_electric rail_fast ship" speed="3.65" length="2.67" shape="2159.85,1009.73 2160.09,1009.50 2160.97,1009.64 2162.10,1010.54"/>
    </edge>
    <edge id=":1472168471_2" function="internal">
        <lane id=":1472168471_2_0" index="0" disallow="tram rail_urban rail rail_electric rail_fast ship" speed="6.14" length="6.39" shape="2157.26,1007.20 2158.95,1007.33 2160.32,1007.93 2161.37,1009.00 2162.10,1010.54"/>
    </edge>
    <edge id=":1472168471_3" function="internal">
        <lane id=":1472168471_3_0" index="0" disallow="tram rail_urban rail rail_electric rail_fast ship" speed="3.65" length="2.70" shape="2157.26,1007.20 2158.50,1007.93 2158.94,1008.71 2158.80,1009.04"/>
    </edge>
    <edge id=":1472168471_5" function="internal">
        <lane id=":1472168471_5_0" index="0" disallow="tram rail_urban rail rail_electric rail_fast ship" speed="3.65" length="1.97" shape="2158.80,1009.04 2158.59,1009.53 2157.43,1010.40"/>
    </edge>
    <edge id=":1472168481_0" function="internal">