<?xml version="1.0" encoding="UTF-8"?>

<!-- generated on Sat Jan  9 13:42:07 2021 by Eclipse SUMO GUI Version 1.7.0
-->

<configuration xmlns:xsi="http://www.w3.org/2001/XMLSchema-instance" xsi:noNamespaceSchemaLocation="http://sumo.dlr.de/xsd/sumoConfiguration.xsd">

    <input>
        <net-file value="/home/shashwath/Sumo/Lab%20Test/test.net.xml"/>
        <route-files value="/home/shashwath/Sumo/Lab%20Test/private.rou.xml"/>
    </input>

</configuration>
