<?xml version="1.0" encoding="UTF-8"?>

<!-- generated on Sun Jan 10 08:12:52 2021 by Eclipse SUMO netedit Version 1.7.0
<configuration xmlns:xsi="http://www.w3.org/2001/XMLSchema-instance" xsi:noNamespaceSchemaLocation="http://sumo.dlr.de/xsd/netconvertConfiguration.xsd">

    <input>
        <sumo-net-file value="/home/shashwath/Sumo/Lab%20Test/test.net.xml"/>
    </input>

    <output>
        <output-file value="/home/shashwath/Sumo/Lab%20Test/test.net.xml"/>
    </output>

    <processing>
        <geometry.min-radius.fix.railways value="false"/>
        <geometry.max-grade.fix value="false"/>
        <offset.disable-normalization value="true"/>
        <lefthand value="false"/>
    </processing>

    <junctions>
        <no-turnarounds value="true"/>
        <junctions.corner-detail value="5"/>
        <junctions.limit-turn-speed value="5.5"/>
        <rectangular-lane-cut value="false"/>
    </junctions>

    <pedestrian>
        <walkingareas value="false"/>
    </pedestrian>

    <netedit>
        <route-files value="/home/shashwath/Sumo/Lab%20Test/private.rou.xml"/>
    </netedit>

    <report>
        <aggregate-warnings value="5"/>
    </report>

</configuration>
-->

<net version="1.6" junctionCornerDetail="5" limitTurnSpeed="5.50" xmlns:xsi="http://www.w3.org/2001/XMLSchema-instance" xsi:noNamespaceSchemaLocation="http://sumo.dlr.de/xsd/net_file.xsd">

    <location netOffset="0.00,0.00" convBoundary="-306.66,589.70,-160.11,636.15" origBoundary="-10000000000.00,-10000000000.00,10000000000.00,10000000000.00" projParameter="!"/>

    <edge id=":gneJ10_0" function="internal">
        <lane id=":gneJ10_0_0" index="0" disallow="pedestrian tram rail_urban rail rail_electric rail_fast ship" speed="8.18" length="18.69" shape="-160.29,622.46 -151.80,627.93 -148.91,633.48 -151.62,639.13 -159.93,644.86"/>
        <lane id=":gneJ10_0_1" index="1" disallow="pedestrian tram rail_urban rail rail_electric rail_fast ship" speed="7.00" length="18.69" shape="-160.24,625.66 -154.17,629.56 -152.11,633.53 -154.05,637.56 -159.98,641.66"/>
        <lane id=":gneJ10_0_2" index="2" disallow="pedestrian tram rail_urban rail rail_electric rail_fast ship" speed="5.58" length="18.69" shape="-160.19,628.86 -156.55,631.20 -155.31,633.58 -156.47,636.00 -160.03,638.46"/>
        <lane id=":gneJ10_0_3" index="3" disallow="pedestrian tram rail_urban rail rail_electric rail_fast ship" speed="3.65" length="18.69" shape="-160.14,632.06 -158.92,632.84 -158.51,633.63 -158.90,634.44 -160.08,635.26"/>
    </edge>
    <edge id=":gneJ11_0" function="internal">
        <lane id=":gneJ11_0_0" index="0" disallow="pedestrian tram rail_urban rail rail_electric rail_fast ship" speed="11.12" length="28.28" shape="-247.38,601.67 -246.46,593.98 -243.31,588.42 -237.91,584.98 -230.28,583.67"/>
    </edge>
    <edge id=":gneJ11_1" function="internal">
        <lane id=":gneJ11_1_0" index="0" disallow="pedestrian tram rail_urban rail rail_electric rail_fast ship" speed="10.10" length="23.14" shape="-244.18,601.60 -243.43,595.31 -240.85,590.76 -236.43,587.94 -230.19,586.87"/>
    </edge>
    <edge id=":gneJ11_2" function="internal">
        <lane id=":gneJ11_2_0" index="0" disallow="pedestrian tram rail_urban rail rail_electric rail_fast ship" speed="8.96" length="17.99" shape="-240.98,601.52 -240.40,596.63 -238.39,593.09 -234.96,590.90 -230.10,590.07"/>
    </edge>
    <edge id=":gneJ11_3" function="internal">
        <lane id=":gneJ11_3_0" index="0" disallow="pedestrian tram rail_urban rail rail_electric rail_fast ship" speed="3.90" length="2.57" shape="-229.83,599.67 -230.52,599.79 -231.01,600.10 -231.30,600.60 -231.38,601.30"/>
    </edge>
    <edge id=":gneJ11_4" function="internal">
        <lane id=":gneJ11_4_0" index="0" disallow="pedestrian tram rail_urban rail rail_electric rail_fast ship" speed="6.08" length="7.71" shape="-229.92,596.47 -232.00,596.83 -233.47,597.76 -234.33,599.28 -234.58,601.38"/>
    </edge>
    <edge id=":gneJ11_5" function="internal">
        <lane id=":gneJ11_5_0" index="0" disallow="pedestrian tram rail_urban rail rail_electric rail_fast ship" speed="7.66" length="12.85" shape="-230.01,593.27 -233.48,593.87 -235.93,595.43 -237.36,597.96 -237.78,601.45"/>
    </edge>
    <edge id=":gneJ12_0" function="internal">
        <lane id=":gneJ12_0_0" index="0" disallow="pedestrian tram rail_urban rail rail_electric rail_fast ship" speed="7.00" length="14.02" shape="-160.59,581.70 -154.48,585.53 -152.36,589.47 -154.25,593.53 -160.13,597.70"/>
        <lane id=":gneJ12_0_1" index="1" disallow="pedestrian tram rail_urban rail rail_electric rail_fast ship" speed="5.58" length="14.02" shape="-160.50,584.90 -156.83,587.20 -155.56,589.56 -156.69,592.00 -160.22,594.50"/>
        <lane id=":gneJ12_0_2" index="2" disallow="pedestrian tram rail_urban rail rail_electric rail_fast ship" speed="3.65" length="14.02" shape="-160.41,588.10 -159.18,588.87 -158.76,589.65 -159.14,590.47 -160.31,591.30"/>
    </edge>
    <edge id=":gneJ9_0" function="internal">
        <lane id=":gneJ9_0_0" index="0" disallow="pedestrian tram rail_urban rail rail_electric rail_fast ship" speed="13.89" length="27.70" shape="-224.92,645.89 -252.07,646.36"/>
        <lane id=":gneJ9_0_1" index="1" disallow="pedestrian tram rail_urban rail rail_electric rail_fast ship" speed="13.89" length="27.70" shape="-224.92,645.89 -233.02,645.52 -238.52,644.51 -244.03,643.51 -252.12,643.16"/>
        <lane id=":gneJ9_0_2" index="2" disallow="pedestrian tram rail_urban rail rail_electric rail_fast ship" speed="13.89" length="27.70" shape="-224.92,645.89 -233.11,645.02 -238.55,642.91 -244.00,640.81 -252.18,639.96"/>
        <lane id=":gneJ9_0_3" index="3" disallow="pedestrian tram rail_urban rail rail_electric rail_fast ship" speed="13.89" length="27.70" shape="-224.98,642.69 -233.16,641.82 -238.61,639.71 -244.06,637.61 -252.24,636.76"/>
    </edge>
    <edge id=":gneJ9_4" function="internal">
        <lane id=":gneJ9_4_0" index="0" disallow="pedestrian tram rail_urban rail rail_electric rail_fast ship" speed="12.74" length="25.39" shape="-224.98,642.69 -234.40,641.29 -241.21,636.75 -244.89,630.01"/>
    </edge>
    <edge id=":gneJ9_5" function="internal">
        <lane id=":gneJ9_5_0" index="0" disallow="pedestrian tram rail_urban rail rail_electric rail_fast ship" speed="11.86" length="20.39" shape="-225.03,639.49 -233.05,638.27 -238.86,634.31 -241.33,629.68"/>
    </edge>
    <edge id=":gneJ9_6" function="internal">
        <lane id=":gneJ9_6_0" index="0" disallow="pedestrian tram rail_urban rail rail_electric rail_fast ship" speed="5.58" length="11.37" shape="-225.03,639.49 -228.66,637.15 -229.90,634.77 -228.74,632.35 -227.36,631.40"/>
    </edge>
    <edge id=":gneJ9_7" function="internal">
        <lane id=":gneJ9_7_0" index="0" disallow="pedestrian tram rail_urban rail rail_electric rail_fast ship" speed="10.91" length="14.21" shape="-225.08,636.29 -231.71,635.25 -236.51,631.87 -237.25,630.43"/>
    </edge>
    <edge id=":gneJ9_8" function="internal">
        <lane id=":gneJ9_8_0" index="0" disallow="pedestrian tram rail_urban rail rail_electric rail_fast ship" speed="3.65" length="2.34" shape="-225.08,636.29 -226.29,635.51 -226.70,634.72"/>
    </edge>
    <edge id=":gneJ9_22" function="internal">
        <lane id=":gneJ9_22_0" index="0" disallow="pedestrian tram rail_urban rail rail_electric rail_fast ship" speed="12.74" length="12.01" shape="-244.89,630.01 -245.41,629.07 -247.00,618.25"/>
    </edge>
    <edge id=":gneJ9_23" function="internal">
        <lane id=":gneJ9_23_0" index="0" disallow="pedestrian tram rail_urban rail rail_electric rail_fast ship" speed="11.86" length="11.88" shape="-241.33,629.68 -242.44,627.61 -243.80,618.18"/>
    </edge>
    <edge id=":gneJ9_24" function="internal">
        <lane id=":gneJ9_24_0" index="0" disallow="pedestrian tram rail_urban rail rail_electric rail_fast ship" speed="5.58" length="2.65" shape="-227.36,631.40 -225.18,629.90"/>
    </edge>
    <edge id=":gneJ9_25" function="internal">
        <lane id=":gneJ9_25_0" index="0" disallow="pedestrian tram rail_urban rail rail_electric rail_fast ship" speed="10.91" length="12.94" shape="-237.25,630.43 -239.47,626.15 -240.60,618.10"/>
    </edge>
    <edge id=":gneJ9_26" function="internal">
        <lane id=":gneJ9_26_0" index="0" disallow="pedestrian tram rail_urban rail rail_electric rail_fast ship" speed="3.65" length="2.34" shape="-226.70,634.72 -226.32,633.91 -225.13,633.10"/>
    </edge>
    <edge id=":gneJ9_9" function="internal">
        <lane id=":gneJ9_9_0" index="0" disallow="pedestrian tram rail_urban rail rail_electric rail_fast ship" speed="6.55" length="9.12" shape="-231.00,617.88 -230.59,620.37 -229.50,622.14 -227.73,623.18 -225.28,623.50"/>
    </edge>
    <edge id=":gneJ9_10" function="internal">
        <lane id=":gneJ9_10_0" index="0" disallow="pedestrian tram rail_urban rail rail_electric rail_fast ship" speed="7.37" length="11.81" shape="-231.00,617.88 -230.56,621.77 -229.46,624.54 -227.68,626.18 -225.23,626.70"/>
    </edge>
    <edge id=":gneJ9_11" function="internal">
        <lane id=":gneJ9_11_0" index="0" disallow="pedestrian tram rail_urban rail rail_electric rail_fast ship" speed="9.36" length="19.68" shape="-234.20,617.96 -233.50,624.63 -231.76,629.38 -228.96,632.20 -225.13,633.10"/>
    </edge>
    <edge id=":gneJ9_12" function="internal">
        <lane id=":gneJ9_12_0" index="0" disallow="pedestrian tram rail_urban rail rail_electric rail_fast ship" speed="11.83" length="32.38" shape="-234.20,617.96 -235.14,627.46 -238.45,634.29 -244.13,638.46 -252.18,639.96"/>
    </edge>
    <edge id=":gneJ9_13" function="internal">
        <lane id=":gneJ9_13_0" index="0" disallow="pedestrian tram rail_urban rail rail_electric rail_fast ship" speed="10.88" length="27.21" shape="-237.40,618.03 -238.17,626.12 -240.90,631.94 -245.59,635.48 -252.24,636.76"/>
    </edge>
    <edge id=":gneJ9_14" function="internal">
        <lane id=":gneJ9_14_0" index="0" disallow="pedestrian tram rail_urban rail rail_electric rail_fast ship" speed="6.50" length="9.03" shape="-252.47,623.96 -250.03,623.57 -248.30,622.48 -247.29,620.71 -247.00,618.25"/>
    </edge>
    <edge id=":gneJ9_15" function="internal">
        <lane id=":gneJ9_15_0" index="0" disallow="pedestrian tram rail_urban rail rail_electric rail_fast ship" speed="13.89" length="27.20" shape="-252.47,623.96 -225.28,623.50"/>
    </edge>
    <edge id=":gneJ9_16" function="internal">
        <lane id=":gneJ9_16_0" index="0" disallow="pedestrian tram rail_urban rail rail_electric rail_fast ship" speed="7.99" length="5.92" shape="-252.42,627.16 -248.57,626.54 -246.86,625.47"/>
    </edge>
    <edge id=":gneJ9_17" function="internal">
        <lane id=":gneJ9_17_0" index="0" disallow="pedestrian tram rail_urban rail rail_electric rail_fast ship" speed="13.89" length="27.31" shape="-252.42,627.16 -225.23,626.70"/>
        <lane id=":gneJ9_17_1" index="1" disallow="pedestrian tram rail_urban rail rail_electric rail_fast ship" speed="13.89" length="27.31" shape="-252.42,627.16 -244.31,627.51 -238.80,628.52 -233.28,629.52 -225.18,629.90"/>
    </edge>
    <edge id=":gneJ9_19" function="internal">
        <lane id=":gneJ9_19_0" index="0" disallow="pedestrian tram rail_urban rail rail_electric rail_fast ship" speed="9.25" length="6.23" shape="-252.36,630.36 -247.11,629.51 -246.33,629.03"/>
    </edge>
    <edge id=":gneJ9_20" function="internal">
        <lane id=":gneJ9_20_0" index="0" disallow="pedestrian tram rail_urban rail rail_electric rail_fast ship" speed="5.58" length="5.07" shape="-252.36,630.36 -248.71,632.69 -247.47,635.07 -247.73,635.62"/>
        <lane id=":gneJ9_20_1" index="1" disallow="pedestrian tram rail_urban rail rail_electric rail_fast ship" speed="3.65" length="5.07" shape="-252.30,633.56 -251.08,634.34 -250.67,635.13 -250.75,635.30"/>
    </edge>
    <edge id=":gneJ9_27" function="internal">
        <lane id=":gneJ9_27_0" index="0" disallow="pedestrian tram rail_urban rail rail_electric rail_fast ship" speed="7.99" length="8.29" shape="-246.86,625.47 -245.85,624.83 -244.26,622.05 -243.80,618.18"/>
    </edge>
    <edge id=":gneJ9_28" function="internal">
        <lane id=":gneJ9_28_0" index="0" disallow="pedestrian tram rail_urban rail rail_electric rail_fast ship" speed="9.25" length="13.16" shape="-246.33,629.03 -243.40,627.19 -241.23,623.38 -240.60,618.10"/>
    </edge>
    <edge id=":gneJ9_29" function="internal">
        <lane id=":gneJ9_29_0" index="0" disallow="pedestrian tram rail_urban rail rail_electric rail_fast ship" speed="5.58" length="6.40" shape="-247.73,635.62 -248.63,637.49 -252.18,639.96"/>
    </edge>
    <edge id=":gneJ9_30" function="internal">
        <lane id=":gneJ9_30_0" index="0" disallow="pedestrian tram rail_urban rail rail_electric rail_fast ship" speed="3.65" length="2.14" shape="-250.75,635.30 -251.06,635.94 -252.24,636.76"/>
    </edge>

    <edge id="-gneE5" from="gneJ9" to="gneJ8" priority="-1">
        <lane id="-gneE5_0" index="0" disallow="pedestrian tram rail_urban rail rail_electric rail_fast ship" speed="13.89" length="54.40" shape="-252.07,646.36 -306.46,647.35"/>
        <lane id="-gneE5_1" index="1" disallow="pedestrian tram rail_urban rail rail_electric rail_fast ship" speed="13.89" length="54.40" shape="-252.12,643.16 -306.51,644.15"/>
        <lane id="-gneE5_2" index="2" disallow="pedestrian tram rail_urban rail rail_electric rail_fast ship" speed="13.89" length="54.40" shape="-252.18,639.96 -306.57,640.95"/>
        <lane id="-gneE5_3" index="3" disallow="pedestrian tram rail_urban rail rail_electric rail_fast ship" speed="13.89" length="54.40" shape="-252.24,636.76 -306.63,637.75"/>
    </edge>
    <edge id="-gneE6" from="gneJ10" to="gneJ9" priority="-1">
        <lane id="-gneE6_0" index="0" disallow="pedestrian tram rail_urban rail rail_electric rail_fast ship" speed="13.89" length="65.00" shape="-159.93,644.86 -224.92,645.89"/>
        <lane id="-gneE6_1" index="1" disallow="pedestrian tram rail_urban rail rail_electric rail_fast ship" speed="13.89" length="65.00" shape="-159.98,641.66 -224.98,642.69"/>
        <lane id="-gneE6_2" index="2" disallow="pedestrian tram rail_urban rail rail_electric rail_fast ship" speed="13.89" length="65.00" shape="-160.03,638.46 -225.03,639.49"/>
        <lane id="-gneE6_3" index="3" disallow="pedestrian tram rail_urban rail rail_electric rail_fast ship" speed="13.89" length="65.00" shape="-160.08,635.26 -225.08,636.29"/>
    </edge>
    <edge id="-gneE7" from="gneJ11" to="gneJ9" priority="-1">
        <lane id="-gneE7_0" index="0" disallow="pedestrian tram rail_urban rail rail_electric rail_fast ship" speed="13.89" length="16.59" shape="-231.38,601.30 -231.00,617.88"/>
        <lane id="-gneE7_1" index="1" disallow="pedestrian tram rail_urban rail rail_electric rail_fast ship" speed="13.89" length="16.59" shape="-234.58,601.38 -234.20,617.96"/>
        <lane id="-gneE7_2" index="2" disallow="pedestrian tram rail_urban rail rail_electric rail_fast ship" speed="13.89" length="16.59" shape="-237.78,601.45 -237.40,618.03"/>
    </edge>
    <edge id="-gneE8" from="gneJ12" to="gneJ11" priority="-1">
        <lane id="-gneE8_0" index="0" disallow="pedestrian tram rail_urban rail rail_electric rail_fast ship" speed="13.89" length="69.72" shape="-160.13,597.70 -229.83,599.67"/>
        <lane id="-gneE8_1" index="1" disallow="pedestrian tram rail_urban rail rail_electric rail_fast ship" speed="13.89" length="69.72" shape="-160.22,594.50 -229.92,596.47"/>
        <lane id="-gneE8_2" index="2" disallow="pedestrian tram rail_urban rail rail_electric rail_fast ship" speed="13.89" length="69.72" shape="-160.31,591.30 -230.01,593.27"/>
    </edge>
    <edge id="gneE5" from="gneJ8" to="gneJ9" priority="-1">
        <lane id="gneE5_0" index="0" disallow="pedestrian tram rail_urban rail rail_electric rail_fast ship" speed="13.89" length="54.40" shape="-306.86,624.95 -252.47,623.96"/>
        <lane id="gneE5_1" index="1" disallow="pedestrian tram rail_urban rail rail_electric rail_fast ship" speed="13.89" length="54.40" shape="-306.81,628.15 -252.42,627.16"/>
        <lane id="gneE5_2" index="2" disallow="pedestrian tram rail_urban rail rail_electric rail_fast ship" speed="13.89" length="54.40" shape="-306.75,631.35 -252.36,630.36"/>
        <lane id="gneE5_3" index="3" disallow="pedestrian tram rail_urban rail rail_electric rail_fast ship" speed="13.89" length="54.40" shape="-306.69,634.55 -252.30,633.56"/>
    </edge>
    <edge id="gneE6" from="gneJ9" to="gneJ10" priority="-1">
        <lane id="gneE6_0" index="0" disallow="pedestrian tram rail_urban rail rail_electric rail_fast ship" speed="13.89" length="65.00" shape="-225.28,623.50 -160.29,622.46"/>
        <lane id="gneE6_1" index="1" disallow="pedestrian tram rail_urban rail rail_electric rail_fast ship" speed="13.89" length="65.00" shape="-225.23,626.70 -160.24,625.66"/>
        <lane id="gneE6_2" index="2" disallow="pedestrian tram rail_urban rail rail_electric rail_fast ship" speed="13.89" length="65.00" shape="-225.18,629.90 -160.19,628.86"/>
        <lane id="gneE6_3" index="3" disallow="pedestrian tram rail_urban rail rail_electric rail_fast ship" speed="13.89" length="65.00" shape="-225.13,633.10 -160.14,632.06"/>
    </edge>
    <edge id="gneE7" from="gneJ9" to="gneJ11" priority="-1">
        <lane id="gneE7_0" index="0" disallow="pedestrian tram rail_urban rail rail_electric rail_fast ship" speed="13.89" length="16.59" shape="-247.00,618.25 -247.38,601.67"/>
        <lane id="gneE7_1" index="1" disallow="pedestrian tram rail_urban rail rail_electric rail_fast ship" speed="13.89" length="16.59" shape="-243.80,618.18 -244.18,601.60"/>
        <lane id="gneE7_2" index="2" disallow="pedestrian tram rail_urban rail rail_electric rail_fast ship" speed="13.89" length="16.59" shape="-240.60,618.10 -240.98,601.52"/>
    </edge>
    <edge id="gneE8" from="gneJ11" to="gneJ12" priority="-1">
        <lane id="gneE8_0" index="0" disallow="pedestrian tram rail_urban rail rail_electric rail_fast ship" speed="13.89" length="69.72" shape="-230.28,583.67 -160.59,581.70"/>
        <lane id="gneE8_1" index="1" disallow="pedestrian tram rail_urban rail rail_electric rail_fast ship" speed="13.89" length="69.72" shape="-230.19,586.87 -160.50,584.90"/>
        <lane id="gneE8_2" index="2" disallow="pedestrian tram rail_urban rail rail_electric rail_fast ship" speed="13.89" length="69.72" shape="-230.10,590.07 -160.41,588.10"/>
    </edge>

    <tlLogic id="gneJ11" type="static" programID="0" offset="0">
        <phase duration="5"  state="GGGGGG"/>
        <phase duration="10" state="yyyyyy"/>
        <phase duration="3"  state="GGGGGG"/>
        <phase duration="3"  state="yyyyyy"/>
    </tlLogic>
    <tlLogic id="gneJ9" type="static" programID="0" offset="0">
        <phase duration="38" state="GGGGgggggrrrrrGGgGGggg"/>
        <phase duration="3"  state="yyyygggggrrrrryyyyyyyy"/>
        <phase duration="6"  state="GGGGGGGGGrrrrrrrrrrrrr"/>
        <phase duration="3"  state="yyyyyyyyyrrrrrrrrrrrrr"/>
        <phase duration="37" state="rrrrrrrrrGGGGGGrGrrGrr"/>
        <phase duration="3"  state="rrrrrrrrryyyyyyryrryrr"/>
    </tlLogic>

    <junction id="gneJ10" type="priority" x="-160.11" y="633.66" incLanes="gneE6_0 gneE6_1 gneE6_2 gneE6_3" intLanes=":gneJ10_0_0 :gneJ10_0_1 :gneJ10_0_2 :gneJ10_0_3" shape="-160.11,633.66 -160.31,620.86 -160.11,633.66">
        <request index="0" response="0000" foes="0000" cont="0"/>
        <request index="1" response="0000" foes="0000" cont="0"/>
        <request index="2" response="0000" foes="0000" cont="0"/>
        <request index="3" response="0000" foes="0000" cont="0"/>
    </junction>
    <junction id="gneJ11" type="traffic_light" x="-239.60" y="591.94" incLanes="gneE7_0 gneE7_1 gneE7_2 -gneE8_0 -gneE8_1 -gneE8_2" intLanes=":gneJ11_0_0 :gneJ11_1_0 :gneJ11_2_0 :gneJ11_3_0 :gneJ11_4_0 :gneJ11_5_0" shape="-248.98,601.71 -229.78,601.27 -230.33,582.07 -236.15,582.77 -240.88,584.50 -244.53,587.25 -247.10,591.04 -248.58,595.86">
        <request index="0" response="000000" foes="000000" cont="0"/>
        <request index="1" response="000000" foes="000000" cont="0"/>
        <request index="2" response="000000" foes="000000" cont="0"/>
        <request index="3" response="000000" foes="000000" cont="0"/>
        <request index="4" response="000000" foes="000000" cont="0"/>
        <request index="5" response="000000" foes="000000" cont="0"/>
    </junction>
    <junction id="gneJ12" type="priority" x="-160.36" y="589.70" incLanes="gneE8_0 gneE8_1 gneE8_2" intLanes=":gneJ12_0_0 :gneJ12_0_1 :gneJ12_0_2" shape="-160.36,589.70 -160.63,580.10 -160.36,589.70">
        <request index="0" response="000" foes="000" cont="0"/>
        <request index="1" response="000" foes="000" cont="0"/>
        <request index="2" response="000" foes="000" cont="0"/>
    </junction>
    <junction id="gneJ8" type="dead_end" x="-306.66" y="636.15" incLanes="-gneE5_0 -gneE5_1 -gneE5_2 -gneE5_3" intLanes="" shape="-306.66,636.15 -306.43,648.95 -306.66,636.15"/>
    <junction id="gneJ9" type="traffic_light" x="-238.61" y="634.91" incLanes="-gneE6_0 -gneE6_1 -gneE6_2 -gneE6_3 -gneE7_0 -gneE7_1 -gneE7_2 gneE5_0 gneE5_1 gneE5_2 gneE5_3" intLanes=":gneJ9_0_0 :gneJ9_0_1 :gneJ9_0_2 :gneJ9_0_3 :gneJ9_22_0 :gneJ9_23_0 :gneJ9_24_0 :gneJ9_25_0 :gneJ9_26_0 :gneJ9_9_0 :gneJ9_10_0 :gneJ9_11_0 :gneJ9_12_0 :gneJ9_13_0 :gneJ9_14_0 :gneJ9_15_0 :gneJ9_27_0 :gneJ9_17_0 :gneJ9_17_1 :gneJ9_28_0 :gneJ9_29_0 :gneJ9_30_0" shape="-224.90,647.49 -225.31,621.90 -227.54,621.47 -228.33,620.92 -228.90,620.13 -229.26,619.10 -229.40,617.85 -248.60,618.29 -248.99,620.52 -249.53,621.31 -250.29,621.88 -251.28,622.23 -252.50,622.36 -252.04,647.96">
        <request index="0"  response="0000000000000000000000" foes="1100000011000000000000" cont="0"/>
        <request index="1"  response="0000000000000000000000" foes="1100000011000000000000" cont="0"/>
        <request index="2"  response="0000000000000000000000" foes="1100000011000000000000" cont="0"/>
        <request index="3"  response="0000000000000000000000" foes="1100000011000000000000" cont="0"/>
        <request index="4"  response="0011111100000000000000" foes="0011111111000000000000" cont="1"/>
        <request index="5"  response="0011111100000000000000" foes="0011111111000000000000" cont="1"/>
        <request index="6"  response="0001101000111000000000" foes="0001101000111000000000" cont="1"/>
        <request index="7"  response="0011111100000000000000" foes="0011111111000000000000" cont="1"/>
        <request index="8"  response="0001101000111000000000" foes="0001101000111000000000" cont="1"/>
        <request index="9"  response="0001101000000000000000" foes="0001101000000101000000" cont="0"/>
        <request index="10" response="0001101000000000000000" foes="0001101000000101000000" cont="0"/>
        <request index="11" response="0001101000000000000000" foes="0001101000000101000000" cont="0"/>
        <request index="12" response="0001101000000010111111" foes="1101101000000010111111" cont="0"/>
        <request index="13" response="0001101000000010111111" foes="1101101000000010111111" cont="0"/>
        <request index="14" response="0000000000000000000000" foes="0000000000000010110000" cont="0"/>
        <request index="15" response="0000000000000000000000" foes="0010010011111111110000" cont="0"/>
        <request index="16" response="0000001000000000000000" foes="0000001000000010110000" cont="1"/>
        <request index="17" response="0000000000000000000000" foes="0010000011111111110000" cont="0"/>
        <request index="18" response="0000000000000000000000" foes="0010000011111111110000" cont="0"/>
        <request index="19" response="0001101000000000000000" foes="0001101000000010110000" cont="1"/>
        <request index="20" response="0000000011000000001111" foes="0000000011000000001111" cont="1"/>
        <request index="21" response="0000000011000000001111" foes="0000000011000000001111" cont="1"/>
    </junction>

    <junction id=":gneJ9_22_0" type="internal" x="-244.89" y="630.01" incLanes=":gneJ9_4_0 gneE5_0 gneE5_1 gneE5_2" intLanes=":gneJ9_12_0 :gneJ9_13_0 :gneJ9_14_0 :gneJ9_15_0 :gneJ9_16_0 :gneJ9_17_0 :gneJ9_17_1 :gneJ9_19_0"/>
    <junction id=":gneJ9_23_0" type="internal" x="-241.33" y="629.68" incLanes=":gneJ9_5_0 gneE5_0 gneE5_1 gneE5_2" intLanes=":gneJ9_12_0 :gneJ9_13_0 :gneJ9_14_0 :gneJ9_15_0 :gneJ9_16_0 :gneJ9_17_0 :gneJ9_17_1 :gneJ9_19_0"/>
    <junction id=":gneJ9_24_0" type="internal" x="-227.36" y="631.40" incLanes=":gneJ9_6_0 -gneE7_0 -gneE7_1 gneE5_0 gneE5_1" intLanes=":gneJ9_9_0 :gneJ9_10_0 :gneJ9_11_0 :gneJ9_15_0 :gneJ9_17_0 :gneJ9_17_1"/>
    <junction id=":gneJ9_25_0" type="internal" x="-237.25" y="630.43" incLanes=":gneJ9_7_0 gneE5_0 gneE5_1 gneE5_2" intLanes=":gneJ9_12_0 :gneJ9_13_0 :gneJ9_14_0 :gneJ9_15_0 :gneJ9_16_0 :gneJ9_17_0 :gneJ9_17_1 :gneJ9_19_0"/>
    <junction id=":gneJ9_26_0" type="internal" x="-226.70" y="634.72" incLanes=":gneJ9_8_0 -gneE7_0 -gneE7_1 gneE5_0 gneE5_1" intLanes=":gneJ9_9_0 :gneJ9_10_0 :gneJ9_11_0 :gneJ9_15_0 :gneJ9_17_0 :gneJ9_17_1"/>
    <junction id=":gneJ9_27_0" type="internal" x="-246.86" y="625.47" incLanes=":gneJ9_16_0 gneE5_0" intLanes=":gneJ9_4_0 :gneJ9_5_0 :gneJ9_7_0 :gneJ9_15_0"/>
    <junction id=":gneJ9_28_0" type="internal" x="-246.33" y="629.03" incLanes=":gneJ9_19_0 gneE5_0 gneE5_1" intLanes=":gneJ9_4_0 :gneJ9_5_0 :gneJ9_7_0 :gneJ9_15_0 :gneJ9_17_0 :gneJ9_17_1"/>
    <junction id=":gneJ9_29_0" type="internal" x="-247.73" y="635.62" incLanes=":gneJ9_20_0 -gneE6_0 -gneE6_1 -gneE7_1 -gneE7_2" intLanes=":gneJ9_0_0 :gneJ9_0_1 :gneJ9_0_2 :gneJ9_0_3 :gneJ9_12_0 :gneJ9_13_0"/>
    <junction id=":gneJ9_30_0" type="internal" x="-250.75" y="635.30" incLanes=":gneJ9_20_1 -gneE6_0 -gneE6_1 -gneE7_1 -gneE7_2" intLanes=":gneJ9_0_0 :gneJ9_0_1 :gneJ9_0_2 :gneJ9_0_3 :gneJ9_12_0 :gneJ9_13_0"/>

    <connection from="-gneE6" to="-gneE5" fromLane="0" toLane="0" via=":gneJ9_0_0" tl="gneJ9" linkIndex="0" dir="s" state="O"/>
    <connection from="-gneE6" to="-gneE5" fromLane="0" toLane="1" via=":gneJ9_0_1" tl="gneJ9" linkIndex="1" dir="s" state="O"/>
    <connection from="-gneE6" to="-gneE5" fromLane="0" toLane="2" via=":gneJ9_0_2" tl="gneJ9" linkIndex="2" dir="s" state="O"/>
    <connection from="-gneE6" to="-gneE5" fromLane="1" toLane="3" via=":gneJ9_0_3" tl="gneJ9" linkIndex="3" dir="s" state="O"/>
    <connection from="-gneE6" to="gneE7" fromLane="1" toLane="0" via=":gneJ9_4_0" tl="gneJ9" linkIndex="4" dir="l" state="o"/>
    <connection from="-gneE6" to="gneE7" fromLane="2" toLane="1" via=":gneJ9_5_0" tl="gneJ9" linkIndex="5" dir="l" state="o"/>
    <connection from="-gneE6" to="gneE6" fromLane="2" toLane="2" via=":gneJ9_6_0" tl="gneJ9" linkIndex="6" dir="t" state="o"/>
    <connection from="-gneE6" to="gneE7" fromLane="3" toLane="2" via=":gneJ9_7_0" tl="gneJ9" linkIndex="7" dir="l" state="o"/>
    <connection from="-gneE6" to="gneE6" fromLane="3" toLane="3" via=":gneJ9_8_0" tl="gneJ9" linkIndex="8" dir="t" state="o"/>
    <connection from="-gneE7" to="gneE6" fromLane="0" toLane="0" via=":gneJ9_9_0" tl="gneJ9" linkIndex="9" dir="r" state="o"/>
    <connection from="-gneE7" to="gneE6" fromLane="0" toLane="1" via=":gneJ9_10_0" tl="gneJ9" linkIndex="10" dir="r" state="o"/>
    <connection from="-gneE7" to="gneE6" fromLane="1" toLane="3" via=":gneJ9_11_0" tl="gneJ9" linkIndex="11" dir="r" state="o"/>
    <connection from="-gneE7" to="-gneE5" fromLane="1" toLane="2" via=":gneJ9_12_0" tl="gneJ9" linkIndex="12" dir="l" state="o"/>
    <connection from="-gneE7" to="-gneE5" fromLane="2" toLane="3" via=":gneJ9_13_0" tl="gneJ9" linkIndex="13" dir="l" state="o"/>
    <connection from="-gneE8" to="-gneE7" fromLane="0" toLane="0" via=":gneJ11_3_0" tl="gneJ11" linkIndex="3" dir="r" state="O"/>
    <connection from="-gneE8" to="-gneE7" fromLane="1" toLane="1" via=":gneJ11_4_0" tl="gneJ11" linkIndex="4" dir="r" state="O"/>
    <connection from="-gneE8" to="-gneE7" fromLane="2" toLane="2" via=":gneJ11_5_0" tl="gneJ11" linkIndex="5" dir="r" state="O"/>
    <connection from="gneE5" to="gneE7" fromLane="0" toLane="0" via=":gneJ9_14_0" tl="gneJ9" linkIndex="14" dir="r" state="O"/>
    <connection from="gneE5" to="gneE6" fromLane="0" toLane="0" via=":gneJ9_15_0" tl="gneJ9" linkIndex="15" dir="s" state="O"/>
    <connection from="gneE5" to="gneE7" fromLane="1" toLane="1" via=":gneJ9_16_0" tl="gneJ9" linkIndex="16" dir="r" state="o"/>
    <connection from="gneE5" to="gneE6" fromLane="1" toLane="1" via=":gneJ9_17_0" tl="gneJ9" linkIndex="17" dir="s" state="O"/>
    <connection from="gneE5" to="gneE6" fromLane="1" toLane="2" via=":gneJ9_17_1" tl="gneJ9" linkIndex="18" dir="s" state="O"/>
    <connection from="gneE5" to="gneE7" fromLane="2" toLane="2" via=":gneJ9_19_0" tl="gneJ9" linkIndex="19" dir="r" state="o"/>
    <connection from="gneE5" to="-gneE5" fromLane="2" toLane="2" via=":gneJ9_20_0" tl="gneJ9" linkIndex="20" dir="t" state="o"/>
    <connection from="gneE5" to="-gneE5" fromLane="3" toLane="3" via=":gneJ9_20_1" tl="gneJ9" linkIndex="21" dir="t" state="o"/>
    <connection from="gneE6" to="-gneE6" fromLane="0" toLane="0" via=":gneJ10_0_0" dir="t" state="M"/>
    <connection from="gneE6" to="-gneE6" fromLane="1" toLane="1" via=":gneJ10_0_1" dir="t" state="M"/>
    <connection from="gneE6" to="-gneE6" fromLane="2" toLane="2" via=":gneJ10_0_2" dir="t" state="M"/>
    <connection from="gneE6" to="-gneE6" fromLane="3" toLane="3" via=":gneJ10_0_3" dir="t" state="M"/>
    <connection from="gneE7" to="gneE8" fromLane="0" toLane="0" via=":gneJ11_0_0" tl="gneJ11" linkIndex="0" dir="l" state="O"/>
    <connection from="gneE7" to="gneE8" fromLane="1" toLane="1" via=":gneJ11_1_0" tl="gneJ11" linkIndex="1" dir="l" state="O"/>
    <connection from="gneE7" to="gneE8" fromLane="2" toLane="2" via=":gneJ11_2_0" tl="gneJ11" linkIndex="2" dir="l" state="O"/>