<?xml version="1.0" encoding="UTF-8"?>

<!-- generated on Thu Nov  5 09:13:02 2020 by Eclipse SUMO duarouter Version 1.7.0
<configuration xmlns:xsi="http://www.w3.org/2001/XMLSchema-instance" xsi:noNamespaceSchemaLocation="http://sumo.dlr.de/xsd/duarouterConfiguration.xsd">

    <input>
        <net-file value="/home/shashwath/Sumo/2020-11-05-09-12-55/osm.net.xml"/>
        <route-files value="/home/shashwath/Sumo/2020-11-05-09-12-55/osm.passenger.trips.xml"/>
    </input>

    <output>
        <output-file value="/home/shashwath/Sumo/2020-11-05-09-12-55/osm.passenger.trips.xml.tmp"/>
        <write-trips value="true"/>
    </output>

    <time>
        <begin value="0"/>
        <end value="3600"/>
    </time>

    <report>
        <no-warnings value="true"/>
        <ignore-errors value="true"/>
        <no-step-log value="true"/>
    </report>

</configuration>
-->

<routes xmlns:xsi="http://www.w3.org/2001/XMLSchema-instance" xsi:noNamespaceSchemaLocation="http://sumo.dlr.de/xsd/routes_file.xsd">
    <vType id="veh_passenger" vClass="passenger"/>
    <trip id="veh0" type="veh_passenger" depart="0.00" departLane="best" from="186250792#1" to="-133182671#1"/>
    <trip id="veh1" type="veh_passenger" depart="1.95" departLane="best" from="-803758017" to="-245441027#5"/>
    <trip id="veh2" type="veh_passenger" depart="3.89" departLane="best" departSpeed="max" from="374532417#0" to="245441027#3"/>
    <trip id="veh3" type="veh_passenger" depart="5.84" departLane="best" from="805349440#0" to="-134023572#1"/>
    <trip id="veh4" type="veh_passenger" depart="7.78" departLane="best" from="-810441620" to="-133182817#2"/>
    <trip id="veh5" type="veh_passenger" depart="9.73" departLane="best" from="-236724276#2" to="133243033#3"/>
    <trip id="veh6" type="veh_passenger" depart="11.68" departLane="best" from="-133182671#4" to="-186251032"/>
    <trip id="veh7" type="veh_passenger" depart="13.62" departLane="best" from="186251026#2" to="171867799#5"/>
    <trip id="veh8" type="veh_passenger" depart="15.57" departLane="best" from="-245441027#3" to="173655934#6"/>
    <trip id="veh9" type="veh_passenger" depart="17.51" departLane="best" from="803243443" to="-133067552"/>
    <trip id="veh10" type="veh_passenger" depart="19.46" departLane="best" from="801054752" to="374529120#10"/>
    <trip id="veh11" type="veh_passenger" depart="21.41" departLane="best" from="-805404073" to="-173655940#0"/>
    <trip id="veh12" type="veh_passenger" depart="23.35" departLane="best" from="805504877#1" to="-805404071#1"/>
    <trip id="veh14" type="veh_passenger" depart="27.24" departLane="best" from="801054753#1" to="374532417#1"/>
    <trip id="veh15" type="veh_passenger" depart="29.19" departLane="best" from="134023573" to="805504898"/>
    <trip id="veh16" type="veh_passenger" depart="31.14" departLane="best" from="-805489890#4" to="173019934#2"/>
    <trip id="veh17" type="veh_passenger" depart="33.08" departLane="best" from="803758011#0" to="186092320#1"/>
    <trip id="veh18" type="veh_passenger" depart="35.03" departLane="best" from="804207573#1" to="173655929#6"/>
    <trip id="veh19" type="veh_passenger" depart="36.97" departLane="best" from="374529120#5" to="-133183494#2"/>
    <trip id="veh20" type="veh_passenger" depart="38.92" departLane="best" from="-246990146#0" to="-804070267"/>
    <trip id="veh21" type="veh_passenger" depart="40.87" departLane="best" from="-133637882" to="-286440385#2"/>
    <trip id="veh22" type="veh_passenger" depart="42.81" departLane="best" from="-172915419" to="-803758030"/>
    <trip id="veh23" type="veh_passenger" depart="44.76" departLane="best" from="186250480#3" to="-805478472"/>
    <trip id="veh24" type="veh_passenger" depart="46.70" departLane="best" from="-805489885" to="-186284210#0"/>
    <trip id="veh25" type="veh_passenger" depart="48.65" departLane="best" from="-803758010" to="805480647#2"/>
    <trip id="veh26" type="veh_passenger" depart="50.60" departLane="best" from="186251026#0" to="186091634#2"/>
    <trip id="veh27" type="veh_passenger" depart="52.54" departLane="best" from="-186138826#4" to="374532417#1"/>
    <trip id="veh28" type="veh_passenger" depart="54.49" departLane="best" from="-186092320#1" to="-805489890#3"/>
    <trip id="veh29" type="veh_passenger" depart="56.43" departLane="best" from="810422147" to="186250794#2"/>
    <trip id="veh30" type="veh_passenger" depart="58.38" departLane="best" from="173019934#3" to="246990146#1"/>
    <trip id="veh31" type="veh_passenger" depart="60.33" departLane="best" from="803758035#0" to="374532418#22"/>
    <trip id="veh32" type="veh_passenger" depart="62.27" departLane="best" from="-286440123" to="-133182878#0"/>
    <trip id="veh34" type="veh_passenger" depart="66.16" departLane="best" from="-186284213#3" to="805489889#0"/>
    <trip id="veh35" type="veh_passenger" depart="68.11" departLane="best" from="804258386" to="-804228550"/>
    <trip id="veh36" type="veh_passenger" depart="70.06" departLane="best" from="186251029#0" to="-805504883"/>
    <trip id="veh37" type="veh_passenger" depart="72.00" departLane="best" from="805478458#0" to="133068688#4"/>
    <trip id="veh40" type="veh_passenger" depart="77.84" departLane="best" from="173655932#1" to="805349446"/>
    <trip id="veh41" type="veh_passenger" depart="79.79" departLane="best" from="-805504887" to="-236724276#2"/>
    <trip id="veh42" type="veh_passenger" depart="81.73" departLane="best" from="812556718" to="133248243#1"/>
    <trip id="veh43" type="veh_passenger" depart="83.68" departLane="best" from="-171867799#2" to="-133183494#3"/>
    <trip id="veh44" type="veh_passenger" depart="85.62" departLane="best" from="-173654284#1" to="186138826#5"/>
    <trip id="veh46" type="veh_passenger" depart="89.52" departLane="best" from="-133248243#0" to="-805489891"/>
    <trip id="veh47" type="veh_passenger" depart="91.46" departLane="best" from="812556706" to="134023571"/>
    <trip id="veh48" type="veh_passenger" depart="93.41" departLane="best" from="805504891" to="804207575"/>
    <trip id="veh49" type="veh_passenger" depart="95.35" departLane="best" from="-133068529" to="374532416#3"/>
    <trip id="veh50" type="veh_passenger" depart="97.30" departLane="best" from="245442602" to="134274590#3"/>
    <trip id="veh51" type="veh_passenger" depart="99.25" departLane="best" from="-803758010" to="186250795"/>
    <trip id="veh52" type="veh_passenger" depart="101.19" departLane="best" from="-173654592" to="128806510#1"/>
    <trip id="veh53" type="veh_passenger" depart="103.14" departLane="best" from="133067453" to="805504862"/>
    <trip id="veh55" type="veh_passenger" depart="107.03" departLane="best" from="133183757#2" to="-186250480#5"/>
    <trip id="veh57" type="veh_passenger" depart="110.92" departLane="best" from="173655940#0" to="-173655938#9"/>
    <trip id="veh58" type="veh_passenger" depart="112.87" departLane="best" from="374532417#3" to="171867799#2"/>
    <trip id="veh59" type="veh_passenger" depart="114.81" departLane="best" from="374532418#17" to="134023572#1"/>
    <trip id="veh60" type="veh_passenger" depart="116.76" departLane="best" from="-128806510#0" to="-805349437"/>
    <trip id="veh61" type="veh_passenger" depart="118.71" departLane="best" from="-133182020#0" to="805478470#1"/>
    <trip id="veh62" type="veh_passenger" depart="120.65" departLane="best" from="805227025#2" to="803758016"/>
    <trip id="veh63" type="veh_passenger" depart="122.60" departLane="best" from="-804217364#1" to="-133242947"/>
    <trip id="veh64" type="veh_passenger" depart="124.54" departLane="best" from="805227025#1" to="805489890#3"/>
    <trip id="veh65" type="veh_passenger" depart="126.49" departLane="best" from="-134023572#0" to="133183151#5"/>
    <trip id="veh66" type="veh_passenger" depart="128.44" departLane="best" from="-133612160#2" to="374532418#10"/>
    <trip id="veh67" type="veh_passenger" depart="130.38" departLane="best" from="374532417#5" to="-173655931#0"/>
    <trip id="veh68" type="veh_passenger" depart="132.33" departLane="best" from="133182671#3" to="172915419"/>
    <trip id="veh70" type="veh_passenger" depart="136.22" departLane="best" from="-810441622" to="-186284213#1"/>
    <trip id="veh71" type="veh_passenger" depart="138.17" departLane="best" from="134274590#1" to="374532417#1"/>
    <trip id="veh72" type="veh_passenger" depart="140.11" departLane="best" from="-186251033#3" to="-804225982#2"/>
    <trip id="veh73" type="veh_passenger" depart="142.06" departLane="best" from="812556705" to="186251027#4"/>
    <trip id="veh74" type="veh_passenger" depart="144.00" departLane="best" from="133028179" to="133637484#3"/>
    <trip id="veh75" type="veh_passenger" depart="145.95" departLane="best" from="-173655926#6" to="-246989553#0"/>
    <trip id="veh77" type="veh_passenger" depart="149.84" departLane="best" from="-286440385#0" to="-245441027#0"/>
    <trip id="veh78" type="veh_passenger" depart="151.79" departLane="best" from="-133637484#1" to="186250480#1"/>
    <trip id="veh79" type="veh_passenger" depart="153.73" departLane="best" from="-286440123" to="805404071#5"/>
    <trip id="veh80" type="veh_passenger" depart="155.68" departLane="best" from="804207571" to="-133637484#1"/>
    <trip id="veh81" type="veh_passenger" depart="157.63" departLane="best" from="-371296340#8" to="186284217#2"/>
    <trip id="veh82" type="veh_passenger" depart="159.57" departLane="best" from="-236724276#0" to="-173655932#2"/>
    <trip id="veh83" type="veh_passenger" depart="161.52" departLane="best" from="805480647#0" to="173655927"/>
    <trip id="veh84" type="veh_passenger" depart="163.46" departLane="best" from="133182592#1" to="374532418#24"/>
    <trip id="veh85" type="veh_passenger" depart="165.41" departLane="best" from="801054753#1" to="-186251026#1"/>
    <trip id="veh86" type="veh_passenger" depart="167.36" departLane="best" from="-171867799#6" to="-812556721"/>
    <trip id="veh87" type="veh_passenger" depart="169.30" departLane="best" from="-812427598" to="133182589"/>
    <trip id="veh88" type="veh_passenger" depart="171.25" departLane="best" from="374532416#8" to="236724276#2"/>
    <trip id="veh89" type="veh_passenger" depart="173.19" departLane="best" from="809425539" to="-172915414"/>
    <trip id="veh90" type="veh_passenger" depart="175.14" departLane="best" from="-805504897" to="-805404071#5"/>
    <trip id="veh91" type="veh_passenger" depart="177.09" departLane="best" from="804207573#1" to="-803243443"/>
    <trip id="veh92" type="veh_passenger" depart="179.03" departLane="best" from="-186251026#2" to="133067442#1"/>
    <trip id="veh93" type="veh_passenger" depart="180.98" departLane="best" from="-810441620" to="-803758030"/>
    <trip id="veh94" type="veh_passenger" depart="182.92" departLane="best" from="-803262080#3" to="805478465#4"/>
    <trip id="veh96" type="veh_passenger" depart="186.82" departLane="best" from="172915414" to="-133183757#1"/>
    <trip id="veh97" type="veh_passenger" depart="188.76" departLane="best" from="817230300" to="803758031"/>
    <trip id="veh98" type="veh_passenger" depart="190.71" departLane="best" from="805504887" to="805478469#2"/>
    <trip id="veh99" type="veh_passenger" depart="192.65" departLane="best" from="804070266" to="-186092325"/>
    <trip id="veh100" type="veh_passenger" depart="194.60" departLane="best" from="133182878#6" to="-186284217#2"/>
    <trip id="veh101" type="veh_passenger" depart="196.55" departLane="best" from="-805504891" to="-133243033#0"/>
    <trip id="veh102" type="veh_passenger" depart="198.49" departLane="best" from="-805489890#5" to="809425543#1"/>
    <trip id="veh104" type="veh_passenger" depart="202.38" departLane="best" from="133067458" to="-810441619"/>
    <trip id="veh105" type="veh_passenger" depart="204.33" departLane="best" from="805504877#1" to="812556706"/>
    <trip id="veh106" type="veh_passenger" depart="206.28" departLane="best" from="173019934#2" to="374532416#2"/>
    <trip id="veh107" type="veh_passenger" depart="208.22" departLane="best" from="-173655940#0" to="-804207569#1"/>
    <trip id="veh108" type="veh_passenger" depart="210.17" departLane="best" from="805504887" to="173655931#1"/>
    <trip id="veh109" type="veh_passenger" depart="212.11" departLane="best" from="171867799#0" to="374532417#21"/>
    <trip id="veh110" type="veh_passenger" depart="214.06" departLane="best" from="-133242946" to="173655934#0"/>
    <trip id="veh111" type="veh_passenger" depart="216.01" departLane="best" from="133183759#1" to="804207568#1"/>
    <trip id="veh112" type="veh_passenger" depart="217.95" departLane="best" from="-186091634#1" to="805504881#0"/>
    <trip id="veh113" type="veh_passenger" depart="219.90" departLane="best" from="-133637882" to="-186250795"/>
    <trip id="veh114" type="veh_passenger" depart="221.84" departLane="best" from="173655936" to="245441027#0"/>
    <trip id="veh115" type="veh_passenger" depart="223.79" departLane="best" from="-371296340#4" to="-173655926#4"/>
    <trip id="veh116" type="veh_passenger" depart="225.74" departLane="best" from="805349437" to="-801054753#1"/>
    <trip id="veh117" type="veh_passenger" depart="227.68" departLane="best" from="173655936" to="186092322#1"/>
    <trip id="veh118" type="veh_passenger" depart="229.63" departLane="best" from="-810422147" to="173655933#1"/>
    <trip id="veh119" type="veh_passenger" depart="231.57" departLane="best" from="133637486" to="805480646#0"/>
    <trip id="veh120" type="veh_passenger" depart="233.52" departLane="best" from="-186251034#0" to="374532416#1"/>
    <trip id="veh121" type="veh_passenger" depart="235.47" departLane="best" from="-371296340#9" to="-805504883"/>
    <trip id="veh122" type="veh_passenger" depart="237.41" departLane="best" from="186284217#2" to="-804207572"/>
    <trip id="veh123" type="veh_passenger" depart="239.36" departLane="best" from="-805349431" to="374532417#3"/>
    <trip id="veh124" type="veh_passenger" depart="241.30" departLane="best" from="-133637484#3" to="133068688#1"/>
    <trip id="veh125" type="veh_passenger" depart="243.25" departLane="best" from="812556721" to="812556706"/>
    <trip id="veh126" type="veh_passenger" depart="245.20" departLane="best" from="-133637485" to="-186284217#1"/>
    <trip id="veh128" type="veh_passenger" depart="249.09" departLane="best" from="805227025#4" to="805227025#7"/>
    <trip id="veh129" type="veh_passenger" depart="251.03" departLane="best" from="-805489883" to="-186091634#1"/>
    <trip id="veh130" type="veh_passenger" depart="252.98" departLane="best" from="803758014" to="374529120#10"/>
    <trip id="veh131" type="veh_passenger" depart="254.93" departLane="best" from="186091634#1" to="809425544#1"/>
    <trip id="veh132" type="veh_passenger" depart="256.87" departLane="best" from="186251027#5" to="-133068248#0"/>
    <trip id="veh133" type="veh_passenger" depart="258.82" departLane="best" from="803709628#1" to="-804207571"/>
    <trip id="veh134" type="veh_passenger" depart="260.76" departLane="best" from="186251034#0" to="805489883"/>
    <trip id="veh135" type="veh_passenger" depart="262.71" departLane="best" from="-173655934#0" to="-173654593#3"/>
    <trip id="veh136" type="veh_passenger" depart="264.66" departLane="best" from="-173019936#1" to="173019934#3"/>
    <trip id="veh137" type="veh_passenger" depart="266.60" departLane="best" from="-803758015#0" to="173655939#2"/>
    <trip id="veh138" type="veh_passenger" depart="268.55" departLane="best" departSpeed="max" from="374532416#0" to="-186251033#5"/>
    <trip id="veh140" type="veh_passenger" depart="272.44" departLane="best" from="133183151#4" to="805404071#5"/>
    <trip id="veh142" type="veh_passenger" depart="276.33" departLane="best" from="-812427598" to="-803758026"/>
    <trip id="veh143" type="veh_passenger" depart="278.28" departLane="best" from="186250480#5" to="-803709634"/>
    <trip id="veh144" type="veh_passenger" depart="280.22" departLane="best" from="374532417#10" to="173019934#1"/>
    <trip id="veh145" type="veh_passenger" depart="282.17" departLane="best" from="-812556718" to="-133068328#0"/>
    <trip id="veh146" type="veh_passenger" depart="284.12" departLane="best" from="-133637487#1" to="805227025#8"/>
    <trip id="veh148" type="veh_passenger" depart="288.01" departLane="best" from="803758015#0" to="173655933#0"/>
    <trip id="veh149" type="veh_passenger" depart="289.95" departLane="best" from="-173655938#3" to="-173655930"/>
    <trip id="veh150" type="veh_passenger" depart="291.90" departLane="best" from="-804225183" to="805404068"/>
    <trip id="veh151" type="veh_passenger" depart="293.85" departLane="best" from="374532418#6" to="804207575"/>
    <trip id="veh153" type="veh_passenger" depart="297.74" departLane="best" from="-803262080#1" to="-173019934#1"/>
    <trip id="veh154" type="veh_passenger" depart="299.68" departLane="best" from="374532418#18" to="805349431"/>
    <trip id="veh155" type="veh_passenger" depart="301.63" departLane="best" from="-805504904" to="186092324"/>
    <trip id="veh156" type="veh_passenger" depart="303.58" departLane="best" from="-173655939#2" to="805478470#2"/>
    <trip id="veh157" type="veh_passenger" depart="305.52" departLane="best" from="804207575" to="805504904"/>
    <trip id="veh158" type="veh_passenger" depart="307.47" departLane="best" from="803262080#1" to="805227025#8"/>
    <trip id="veh159" type="veh_passenger" depart="309.41" departLane="best" from="-133182671#1" to="374532417#14"/>
    <trip id="veh161" type="veh_passenger" depart="313.31" departLane="best" from="374532420#1" to="804217363"/>
    <trip id="veh164" type="veh_passenger" depart="319.14" departLane="best" from="804225982#2" to="804207573#1"/>
    <trip id="veh165" type="veh_passenger" depart="321.09" departLane="best" from="-245441027#5" to="803709631#1"/>
    <trip id="veh166" type="veh_passenger" depart="323.04" departLane="best" from="133068528" to="-804217362#0"/>
    <trip id="veh167" type="veh_passenger" depart="324.98" departLane="best" from="374532418#6" to="-246989554#2"/>
    <trip id="veh168" type="veh_passenger" depart="326.93" departLane="best" from="-133182592#2" to="-186251026#4"/>
    <trip id="veh169" type="veh_passenger" depart="328.87" departLane="best" from="-805349444#0" to="804217364#0"/>
    <trip id="veh170" type="veh_passenger" depart="330.82" departLane="best" from="805504886#0" to="-803758031"/>
    <trip id="veh171" type="veh_passenger" depart="332.77" departLane="best" from="186250794#0" to="-805504886#0"/>
    <trip id="veh172" type="veh_passenger" depart="334.71" departLane="best" from="805504910" to="134274590#2"/>
    <trip id="veh173" type="veh_passenger" depart="336.66" departLane="best" from="805489883" to="-173654593#3"/>
    <trip id="veh174" type="veh_passenger" depart="338.60" departLane="best" from="805504889" to="-186250480#4"/>
    <trip id="veh176" type="veh_passenger" depart="342.50" departLane="best" from="-173654284#0" to="128806510#1"/>
    <trip id="veh178" type="veh_passenger" depart="346.39" departLane="best" from="173655938#9" to="133299140#1"/>
    <trip id="veh179" type="veh_passenger" depart="348.33" departLane="best" from="-805504871" to="173655929#5"/>
    <trip id="veh180" type="veh_passenger" depart="350.28" departLane="best" from="-803709628#0" to="374529120#5"/>
    <trip id="veh181" type="veh_passenger" depart="352.23" departLane="best" from="-128806510#2" to="805478469#1"/>
    <trip id="veh182" type="veh_passenger" depart="354.17" departLane="best" from="134274590#0" to="374532416#2"/>
    <trip id="veh183" type="veh_passenger" depart="356.12" departLane="best" from="374532417#10" to="236724276#0"/>
    <trip id="veh184" type="veh_passenger" depart="358.06" departLane="best" from="-805480645#1" to="-133637484#0"/>
    <trip id="veh185" type="veh_passenger" depart="360.01" departLane="best" from="186251034#1" to="-805349444#1"/>
    <trip id="veh186" type="veh_passenger" depart="361.96" departLane="best" from="-804228551" to="804071764#1"/>
    <trip id="veh187" type="veh_passenger" depart="363.90" departLane="best" from="374532416#10" to="-804207572"/>
    <trip id="veh188" type="veh_passenger" depart="365.85" departLane="best" from="-804225982#1" to="-805504905"/>
    <trip id="veh189" type="veh_passenger" depart="367.79" departLane="best" from="-805504897" to="-804207568#0"/>
    <trip id="veh190" type="veh_passenger" depart="369.74" departLane="best" from="-173655930" to="-810367889"/>
    <trip id="veh191" type="veh_passenger" depart="371.69" departLane="best" from="805489885" to="245441027#4"/>
    <trip id="veh193" type="veh_passenger" depart="375.58" departLane="best" from="-804207573#2" to="172915415#0"/>
    <trip id="veh195" type="veh_passenger" depart="379.47" departLane="best" from="186251028" to="133069207"/>
    <trip id="veh196" type="veh_passenger" depart="381.42" departLane="best" departSpeed="max" from="133055212#0" to="-186284217#2"/>
    <trip id="veh197" type="veh_passenger" depart="383.36" departLane="best" from="133182592#2" to="805404070#1"/>
    <trip id="veh198" type="veh_passenger" depart="385.31" departLane="best" from="374532418#6" to="-186138826#1"/>
    <trip id="veh199" type="veh_passenger" depart="387.25" departLane="best" from="-134023571" to="133612160#2"/>
    <trip id="veh200" type="veh_passenger" depart="389.20" departLane="best" from="186250480#0" to="-805404070#1"/>
    <trip id="veh201" type="veh_passenger" depart="391.15" departLane="best" from="803709630" to="374532417#3"/>
    <trip id="veh202" type="veh_passenger" depart="393.09" departLane="best" from="236724275" to="-246989553#0"/>
    <trip id="veh203" type="veh_passenger" depart="395.04" departLane="best" from="-186251033#0" to="-133182671#0"/>
    <trip id="veh204" type="veh_passenger" depart="396.98" departLane="best" from="-801054753#0" to="133182817#1"/>
    <trip id="veh205" type="veh_passenger" depart="398.93" departLane="best" from="804070267" to="-133637484#3"/>
    <trip id="veh206" type="veh_passenger" depart="400.88" departLane="best" from="-809425543#0" to="186250480#0"/>
    <trip id="veh207" type="veh_passenger" depart="402.82" departLane="best" from="-186251027#4" to="374529120#0"/>
    <trip id="veh208" type="veh_passenger" depart="404.77" departLane="best" from="133183494#0" to="-801054751"/>
    <trip id="veh209" type="veh_passenger" depart="406.71" departLane="best" from="186251029#0" to="-133067519"/>
    <trip id="veh210" type="veh_passenger" depart="408.66" departLane="best" from="374532417#17" to="374532418#18"/>
    <trip id="veh211" type="veh_passenger" depart="410.61" departLane="best" from="-173019936#0" to="-810441622"/>
    <trip id="veh212" type="veh_passenger" depart="412.55" departLane="best" from="-186250480#2" to="805504877#2"/>
    <trip id="veh213" type="veh_passenger" depart="414.50" departLane="best" from="133612160#1" to="-133183757#0"/>
    <trip id="veh214" type="veh_passenger" depart="416.44" departLane="best" from="-803262080#1" to="804071764#1"/>
    <trip id="veh215" type="veh_passenger" depart="418.39" departLane="best" from="133067552" to="801054752"/>
    <trip id="veh216" type="veh_passenger" depart="420.34" departLane="best" from="186284210#0" to="810367888"/>
    <trip id="veh217" type="veh_passenger" depart="422.28" departLane="best" from="173655937#0" to="805489892#1"/>
    <trip id="veh218" type="veh_passenger" depart="424.23" departLane="best" from="805349438" to="186091636#0"/>
    <trip id="veh219" type="veh_passenger" depart="426.17" departLane="best" from="374532416#1" to="133243033#3"/>
    <trip id="veh220" type="veh_passenger" depart="428.12" departLane="best" from="803758011#1" to="172915415#0"/>
    <trip id="veh221" type="veh_passenger" depart="430.07" departLane="best" from="805349444#1" to="374532417#19"/>
    <trip id="veh222" type="veh_passenger" depart="432.01" departLane="best" from="-801455592" to="186250793#1"/>
    <trip id="veh223" type="veh_passenger" depart="433.96" departLane="best" from="374532417#5" to="133637487#2"/>
    <trip id="veh224" type="veh_passenger" depart="435.90" departLane="best" from="186138826#0" to="-803758015#1"/>
    <trip id="veh226" type="veh_passenger" depart="439.80" departLane="best" from="-803758014" to="-805349433#0"/>
    <trip id="veh227" type="veh_passenger" depart="441.74" departLane="best" from="134274590#2" to="-173655934#5"/>
    <trip id="veh228" type="veh_passenger" depart="443.69" departLane="best" from="-286440385#2" to="371296340#6"/>
    <trip id="veh229" type="veh_passenger" depart="445.63" departLane="best" from="374529120#8" to="-133248243#0"/>
    <trip id="veh230" type="veh_passenger" depart="447.58" departLane="best" from="-805504907" to="171867799#4"/>
    <trip id="veh231" type="veh_passenger" depart="449.53" departLane="best" from="-809425544#0" to="-186251034#3"/>
    <trip id="veh233" type="veh_passenger" depart="453.42" departLane="best" from="173655932#0" to="371296340#9"/>
    <trip id="veh234" type="veh_passenger" depart="455.36" departLane="best" from="804207568#1" to="374532418#15"/>
    <trip id="veh235" type="veh_passenger" depart="457.31" departLane="best" from="-805489892#1" to="-133067519"/>
    <trip id="veh236" type="veh_passenger" depart="459.26" departLane="best" from="-805478465#0" to="374532417#4"/>
    <trip id="veh237" type="veh_passenger" depart="461.20" departLane="best" from="804207564" to="805504862"/>
    <trip id="veh238" type="veh_passenger" depart="463.15" departLane="best" from="-810422147" to="374532417#20"/>
    <trip id="veh239" type="veh_passenger" depart="465.09" departLane="best" from="171867799#4" to="173655938#9"/>
    <trip id="veh240" type="veh_passenger" depart="467.04" departLane="best" from="-245441027#3" to="-236724276#2"/>
    <trip id="veh241" type="veh_passenger" depart="468.99" departLane="best" from="133026723#0" to="-133182817#1"/>
    <trip id="veh243" type="veh_passenger" depart="472.88" departLane="best" from="-805504900" to="-186092323"/>
    <trip id="veh244" type="veh_passenger" depart="474.82" departLane="best" from="133069163#2" to="-173655930"/>
    <trip id="veh245" type="veh_passenger" depart="476.77" departLane="best" from="186092322#1" to="-133182671#4"/>
    <trip id="veh246" type="veh_passenger" depart="478.72" departLane="best" from="-805504883" to="173654593#3"/>
    <trip id="veh247" type="veh_passenger" depart="480.66" departLane="best" from="-133182696" to="186250797#1"/>
    <trip id="veh248" type="veh_passenger" depart="482.61" departLane="best" from="-173655934#2" to="133069102"/>
    <trip id="veh249" type="veh_passenger" depart="484.55" departLane="best" from="-133183757#1" to="-805489890#3"/>
    <trip id="veh250" type="veh_passenger" depart="486.50" departLane="best" from="-186284213#3" to="-805349440#1"/>
    <trip id="veh251" type="veh_passenger" depart="488.45" departLane="best" from="374532417#3" to="-805489890#3"/>
    <trip id="veh252" type="veh_passenger" depart="490.39" departLane="best" from="374532417#18" to="803758016"/>
    <trip id="veh253" type="veh_passenger" depart="492.34" departLane="best" from="-803262083" to="-133637885"/>
    <trip id="veh254" type="veh_passenger" depart="494.28" departLane="best" from="-133182020#0" to="171867799#2"/>
    <trip id="veh255" type="veh_passenger" depart="496.23" departLane="best" from="817230300" to="-805478459"/>
    <trip id="veh256" type="veh_passenger" depart="498.18" departLane="best" from="186251026#3" to="374532418#24"/>
    <trip id="veh257" type="veh_passenger" depart="500.12" departLane="best" from="186251027#1" to="374532417#5"/>
    <trip id="veh258" type="veh_passenger" depart="502.07" departLane="best" from="805489891" to="-186251032"/>
    <trip id="veh259" type="veh_passenger" depart="504.01" departLane="best" from="-133182020#1" to="-173655938#9"/>
    <trip id="veh260" type="veh_passenger" depart="505.96" departLane="best" from="-173655929#5" to="236724275"/>
    <trip id="veh261" type="veh_passenger" depart="507.91" departLane="best" from="173654591#1" to="-236724276#1"/>
    <trip id="veh262" type="veh_passenger" depart="509.85" departLane="best" from="374529120#0" to="374532418#16"/>
    <trip id="veh263" type="veh_passenger" depart="511.80" departLane="best" from="-186138826#0" to="186091634#0"/>
    <trip id="veh264" type="veh_passenger" depart="513.74" departLane="best" from="803709631#0" to="805504884#1"/>
    <trip id="veh265" type="veh_passenger" depart="515.69" departLane="best" from="-173019936#2" to="-133182671#3"/>
    <trip id="veh267" type="veh_passenger" depart="519.58" departLane="best" from="805504877#2" to="-805504884#0"/>
    <trip id="veh268" type="veh_passenger" depart="521.53" departLane="best" departSpeed="max" from="374532416#0" to="-133637487#1"/>
    <trip id="veh269" type="veh_passenger" depart="523.47" departLane="best" from="286440385#1" to="186138826#4"/>
    <trip id="veh270" type="veh_passenger" depart="525.42" departLane="best" from="-173019934#0" to="374532418#19"/>
    <trip id="veh271" type="veh_passenger" depart="527.37" departLane="best" from="804071763" to="173655938#5"/>
    <trip id="veh272" type="veh_passenger" depart="529.31" departLane="best" from="-173655926#6" to="809425539"/>
    <trip id="veh273" type="veh_passenger" depart="531.26" departLane="best" from="374532418#19" to="-805478457#1"/>
    <trip id="veh274" type="veh_passenger" depart="533.20" departLane="best" from="-812556720" to="-805489882"/>
    <trip id="veh275" type="veh_passenger" depart="535.15" departLane="best" from="133242946" to="-805404072#1"/>
    <trip id="veh276" type="veh_passenger" depart="537.10" departLane="best" from="186250480#3" to="803758013"/>
    <trip id="veh277" type="veh_passenger" depart="539.04" departLane="best" from="374529120#8" to="128806510#2"/>
    <trip id="veh278" type="veh_passenger" depart="540.99" departLane="best" departSpeed="max" from="374532417#0" to="805504885#0"/>