<?xml version="1.0" encoding="UTF-8"?>

<!-- generated on Thu Nov  5 09:13:00 2020 by Eclipse SUMO netconvert Version 1.7.0
<configuration xmlns:xsi="http://www.w3.org/2001/XMLSchema-instance" xsi:noNamespaceSchemaLocation="http://sumo.dlr.de/xsd/netconvertConfiguration.xsd">

    <input>
        <type-files value="/opt/sumo-1.7.0/data/typemap/osmNetconvert.typ.xml"/>
        <osm-files value="osm_bbox.osm.xml"/>
    </input>

    <output>
        <output-file value="osm.net.xml"/>
        <output.street-names value="true"/>
        <output.original-names value="true"/>
    </output>

    <projection>
        <proj.utm value="true"/>
    </projection>

    <processing>
        <geometry.remove value="true"/>
        <roundabouts.guess value="true"/>
        <lefthand value="true"/>
    </processing>

    <tls_building>
        <tls.discard-simple value="true"/>
        <tls.join value="true"/>
        <tls.guess-signals value="true"/>
        <tls.default-type value="actuated"/>
    </tls_building>

    <ramp_guessing>
        <ramps.guess value="true"/>
    </ramp_guessing>

    <edge_removal>
        <keep-edges.by-vclass value="passenger"/>
    </edge_removal>

    <junctions>
        <junctions.join value="true"/>
        <junctions.corner-detail value="5"/>
    </junctions>

    <report>
        <verbose value="true"/>
        <aggregate-warnings value="5"/>
    </report>

</configuration>
-->

<net version="1.6" junctionCornerDetail="5" lefthand="true" limitTurnSpeed="5.50" xmlns:xsi="http://www.w3.org/2001/XMLSchema-instance" xsi:noNamespaceSchemaLocation="http://sumo.dlr.de/xsd/net_file.xsd">

    <location netOffset="-471377.93,-1473732.35" convBoundary="0.00,-0.00,5244.87,4588.49" origBoundary="74.735689,13.330811,74.784122,13.379438" projParameter="+proj=utm +zone=43 +ellps=WGS84 +datum=WGS84 +units=m +no_defs"/>

    <type id="highway.bridleway" priority="1" numLanes="1" speed="2.78" allow="pedestrian" oneway="1" width="2.00"/>
    <type id="highway.bus_guideway" priority="1" numLanes="1" speed="27.78" allow="bus" oneway="1"/>
    <type id="highway.cycleway" priority="1" numLanes="1" speed="8.33" allow="bicycle" oneway="0" width="1.00"/>
    <type id="highway.footway" priority="1" numLanes="1" speed="2.78" allow="pedestrian" oneway="1" width="2.00"/>
    <type id="highway.ford" priority="1" numLanes="1" speed="2.78" allow="army" oneway="0"/>
    <type id="highway.living_street" priority="2" numLanes="1" speed="2.78" disallow="tram rail_urban rail rail_electric rail_fast ship" oneway="0"/>
    <type id="highway.motorway" priority="14" numLanes="2" speed="39.44" allow="private emergency authority army vip passenger hov taxi bus coach delivery truck trailer motorcycle evehicle custom1 custom2" oneway="1"/>
    <type id="highway.motorway_link" priority="9" numLanes="1" speed="22.22" allow="private emergency authority army vip passenger hov taxi bus coach delivery truck trailer motorcycle evehicle custom1 custom2" oneway="1"/>
    <type id="highway.path" priority="1" numLanes="1" speed="2.78" allow="pedestrian bicycle" oneway="1" width="2.00"/>
    <type id="highway.pedestrian" priority="1" numLanes="1" speed="2.78" allow="pedestrian" oneway="1" width="2.00"/>
    <type id="highway.primary" priority="12" numLanes="2" speed="27.78" disallow="tram rail_urban rail rail_electric rail_fast ship" oneway="0"/>
    <type id="highway.primary_link" priority="7" numLanes="1" speed="22.22" disallow="tram rail_urban rail rail_electric rail_fast ship" oneway="0"/>
    <type id="highway.raceway" priority="15" numLanes="2" speed="83.33" allow="vip" oneway="0"/>
    <type id="highway.residential" priority="3" numLanes="1" speed="13.89" disallow="tram rail_urban rail rail_electric rail_fast ship" oneway="0"/>
    <type id="highway.secondary" priority="11" numLanes="1" speed="27.78" disallow="tram rail_urban rail rail_electric rail_fast ship" oneway="0"/>
    <type id="highway.secondary_link" priority="6" numLanes="1" speed="22.22" disallow="tram rail_urban rail rail_electric rail_fast ship" oneway="0"/>
    <type id="highway.service" priority="1" numLanes="1" speed="5.56" allow="pedestrian delivery bicycle" oneway="0"/>
    <type id="highway.stairs" priority="1" numLanes="1" speed="1.39" allow="pedestrian" oneway="1" width="2.00"/>
    <type id="highway.step" priority="1" numLanes="1" speed="1.39" allow="pedestrian" oneway="1" width="2.00"/>
    <type id="highway.steps" priority="1" numLanes="1" speed="1.39" allow="pedestrian" oneway="1" width="2.00"/>
    <type id="highway.tertiary" priority="10" numLanes="1" speed="22.22" disallow="tram rail_urban rail rail_electric rail_fast ship" oneway="0"/>
    <type id="highway.tertiary_link" priority="5" numLanes="1" speed="22.22" disallow="tram rail_urban rail rail_electric rail_fast ship" oneway="0"/>
    <type id="highway.track" priority="1" numLanes="1" speed="5.56" allow="pedestrian motorcycle moped bicycle" oneway="0"/>
    <type id="highway.trunk" priority="13" numLanes="2" speed="27.78" disallow="pedestrian bicycle tram rail_urban rail rail_electric rail_fast ship" oneway="0"/>
    <type id="highway.trunk_link" priority="8" numLanes="1" speed="22.22" disallow="pedestrian bicycle tram rail_urban rail rail_electric rail_fast ship" oneway="0"/>
    <type id="highway.unclassified" priority="4" numLanes="1" speed="13.89" disallow="tram rail_urban rail rail_electric rail_fast ship" oneway="0"/>
    <type id="highway.unsurfaced" priority="1" numLanes="1" speed="8.33" disallow="tram rail_urban rail rail_electric rail_fast ship" oneway="0"/>
    <type id="railway.highspeed" priority="21" numLanes="1" speed="69.44" allow="rail_fast" oneway="1"/>
    <type id="railway.light_rail" priority="19" numLanes="1" speed="27.78" allow="rail_urban" oneway="1"/>
    <type id="railway.preserved" priority="16" numLanes="1" speed="27.78" allow="rail" oneway="1"/>
    <type id="railway.rail" priority="20" numLanes="1" speed="44.44" allow="rail" oneway="1"/>
    <type id="railway.subway" priority="18" numLanes="1" speed="27.78" allow="rail_urban" oneway="1"/>
    <type id="railway.tram" priority="17" numLanes="1" speed="13.89" allow="tram" oneway="1"/>

    <edge id=":1422425853_0" function="internal">
        <lane id=":1422425853_0_0" index="0" disallow="tram rail_urban rail rail_electric rail_fast ship" speed="3.65" length="4.67" shape="3763.21,681.53 3762.45,680.30 3761.66,679.87 3760.85,680.24 3760.01,681.42"/>
    </edge>
    <edge id=":1463845550_0" function="internal">
        <lane id=":1463845550_0_0" index="0" disallow="tram rail_urban rail rail_electric rail_fast ship" speed="20.98" length="12.67" shape="1234.91,1234.35 1232.45,1237.45 1230.92,1239.73 1229.86,1242.24 1228.82,1246.04"/>
        <lane id=":1463845550_0_1" index="1" disallow="tram rail_urban rail rail_electric rail_fast ship" speed="19.88" length="12.67" shape="1237.41,1236.34 1235.20,1239.12 1233.82,1241.16 1232.87,1243.40 1231.93,1246.80"/>
    </edge>
    <edge id=":1463845550_2" function="internal">
        <lane id=":1463845550_2_0" index="0" disallow="tram rail_urban rail rail_electric rail_fast ship" speed="5.82" length="9.14" shape="1237.41,1236.34 1236.05,1238.64 1235.96,1240.54 1237.13,1242.02 1239.58,1243.09"/>
    </edge>
    <edge id=":1463845555_0" function="internal">
        <lane id=":1463845555_0_0" index="0" disallow="tram rail_urban rail rail_electric rail_fast ship" speed="27.78" length="8.10" shape="1270.81,1185.20 1269.92,1187.33 1269.70,1188.99 1269.38,1190.58 1268.23,1192.54"/>
        <lane id=":1463845555_0_1" index="1" disallow="tram rail_urban rail rail_electric rail_fast ship" speed="27.78" length="8.10" shape="1273.57,1186.81 1272.62,1189.06 1272.34,1190.79 1271.97,1192.47 1270.73,1194.53"/>
    </edge>
    <edge id=":1463845555_2" function="internal">
        <lane id=":1463845555_2_0" index="0" disallow="tram rail_urban rail rail_electric rail_fast ship" speed="3.65" length="2.55" shape="1273.57,1186.81 1273.66,1188.25 1274.15,1188.99 1274.37,1189.01"/>
    </edge>
    <edge id=":1463845555_6" function="internal">
        <lane id=":1463845555_6_0" index="0" disallow="tram rail_urban rail rail_electric rail_fast ship" speed="3.65" length="2.12" shape="1274.37,1189.01 1275.04,1189.05 1276.34,1188.41"/>
    </edge>
    <edge id=":1463845555_3" function="internal">
        <lane id=":1463845555_3_0" index="0" disallow="tram rail_urban rail rail_electric rail_fast ship" speed="19.81" length="11.53" shape="1275.23,1200.18 1275.69,1197.15 1276.35,1195.00 1277.42,1192.89 1279.11,1190.02"/>
        <lane id=":1463845555_3_1" index="1" disallow="tram rail_urban rail rail_electric rail_fast ship" speed="20.72" length="11.53" shape="1275.23,1200.18 1275.22,1196.96 1274.88,1194.35 1274.99,1191.71 1276.34,1188.41"/>
    </edge>
    <edge id=":1463845555_5" function="internal">
        <lane id=":1463845555_5_0" index="0" disallow="tram rail_urban rail rail_electric rail_fast ship" speed="5.97" length="9.20" shape="1275.23,1200.18 1275.49,1194.91 1274.83,1192.22 1273.68,1192.12"/>
    </edge>
    <edge id=":1463845555_7" function="internal">
        <lane id=":1463845555_7_0" index="0" disallow="tram rail_urban rail rail_electric rail_fast ship" speed="5.97" length="3.94" shape="1273.68,1192.12 1273.24,1192.09 1270.73,1194.53"/>
    </edge>
    <edge id=":1463845566_0" function="internal">
        <lane id=":1463845566_0_0" index="0" disallow="tram rail_urban rail rail_electric rail_fast ship" speed="3.65" length="4.67" shape="1361.37,1053.22 1361.67,1051.80 1361.39,1050.95 1360.54,1050.66 1359.13,1050.93"/>
    </edge>
    <edge id=":1463845571_0" function="internal">
        <lane id=":1463845571_0_0" index="0" disallow="tram rail_urban rail rail_electric rail_fast ship" speed="10.27" length="16.42" shape="1311.75,1115.23 1308.85,1119.15 1305.68,1121.80 1302.25,1123.19 1298.55,1123.32"/>
    </edge>
    <edge id=":1463845571_1" function="internal">
        <lane id=":1463845571_1_0" index="0" disallow="tram rail_urban rail rail_electric rail_fast ship" speed="27.78" length="20.49" shape="1311.75,1115.23 1301.26,1132.86"/>
        <lane id=":1463845571_1_1" index="1" disallow="tram rail_urban rail rail_electric rail_fast ship" speed="27.78" length="20.49" shape="1314.49,1116.89 1304.02,1134.47"/>
    </edge>
    <edge id=":1463845571_3" function="internal">
        <lane id=":1463845571_3_0" index="0" disallow="tram rail_urban rail rail_electric rail_fast ship" speed="8.19" length="6.49" shape="1314.49,1116.89 1312.51,1121.77 1312.73,1122.97"/>
    </edge>
    <edge id=":1463845571_4" function="internal">
        <lane id=":1463845571_4_0" index="0" disallow="tram rail_urban rail rail_electric rail_fast ship" speed="3.65" length="2.34" shape="1314.49,1116.89 1314.55,1118.33 1315.02,1119.09"/>
    </edge>
    <edge id=":1463845571_18" function="internal">
        <lane id=":1463845571_18_0" index="0" disallow="tram rail_urban rail rail_electric rail_fast ship" speed="8.19" length="13.10" shape="1312.73,1122.97 1313.20,1125.54 1316.55,1128.21 1322.56,1129.76"/>
    </edge>
    <edge id=":1463845571_19" function="internal">
        <lane id=":1463845571_19_0" index="0" disallow="tram rail_urban rail rail_electric rail_fast ship" speed="3.65" length="2.34" shape="1315.02,1119.09 1315.91,1119.16 1317.22,1118.55"/>
    </edge>
    <edge id=":1463845571_5" function="internal">
        <lane id=":1463845571_5_0" index="0" disallow="tram rail_urban rail rail_electric rail_fast ship" speed="5.80" length="9.15" shape="1322.99,1126.59 1320.41,1125.86 1319.04,1124.56 1318.89,1122.68 1319.95,1120.21"/>
    </edge>
    <edge id=":1463845571_6" function="internal">
        <lane id=":1463845571_6_0" index="0" disallow="tram rail_urban rail rail_electric rail_fast ship" speed="13.89" length="24.66" shape="1322.99,1126.59 1298.55,1123.32"/>
    </edge>
    <edge id=":1463845571_7" function="internal">
        <lane id=":1463845571_7_0" index="0" disallow="tram rail_urban rail rail_electric rail_fast ship" speed="11.65" length="21.88" shape="1322.99,1126.59 1316.81,1126.40 1311.59,1127.65 1307.33,1130.34 1304.02,1134.47"/>
    </edge>
    <edge id=":1463845571_8" function="internal">
        <lane id=":1463845571_8_0" index="0" disallow="tram rail_urban rail rail_electric rail_fast ship" speed="3.65" length="4.67" shape="1322.99,1126.59 1321.69,1127.22 1321.19,1127.96 1321.48,1128.80 1322.56,1129.76"/>
    </edge>
    <edge id=":1463845571_9" function="internal">
        <lane id=":1463845571_9_0" index="0" disallow="tram rail_urban rail rail_electric rail_fast ship" speed="10.08" length="16.20" shape="1309.56,1137.69 1312.33,1133.82 1315.42,1131.21 1318.83,1129.86 1322.56,1129.76"/>
    </edge>
    <edge id=":1463845571_10" function="internal">
        <lane id=":1463845571_10_0" index="0" disallow="tram rail_urban rail rail_electric rail_fast ship" speed="27.78" length="20.36" shape="1309.56,1137.69 1319.95,1120.21"/>
        <lane id=":1463845571_10_1" index="1" disallow="tram rail_urban rail rail_electric rail_fast ship" speed="27.78" length="20.36" shape="1306.79,1136.08 1317.22,1118.55"/>
    </edge>
    <edge id=":1463845571_12" function="internal">
        <lane id=":1463845571_12_0" index="0" disallow="tram rail_urban rail rail_electric rail_fast ship" speed="8.20" length="6.25" shape="1306.79,1136.08 1308.64,1131.22 1308.43,1130.19"/>
    </edge>
    <edge id=":1463845571_13" function="internal">
        <lane id=":1463845571_13_0" index="0" disallow="tram rail_urban rail rail_electric rail_fast ship" speed="3.65" length="2.34" shape="1306.79,1136.08 1306.70,1134.64 1306.21,1133.89"/>
    </edge>
    <edge id=":1463845571_20" function="internal">
        <lane id=":1463845571_20_0" index="0" disallow="tram rail_urban rail rail_electric rail_fast ship" speed="8.20" length="13.21" shape="1308.43,1130.19 1307.89,1127.47 1304.52,1124.83 1298.55,1123.32"/>
    </edge>
    <edge id=":1463845571_21" function="internal">
        <lane id=":1463845571_21_0" index="0" disallow="tram rail_urban rail rail_electric rail_fast ship" speed="3.65" length="2.34" shape="1306.21,1133.89 1305.32,1133.84 1304.02,1134.47"/>
    </edge>
    <edge id=":1463845571_14" function="internal">
        <lane id=":1463845571_14_0" index="0" disallow="tram rail_urban rail rail_electric rail_fast ship" speed="5.82" length="9.14" shape="1298.13,1126.49 1300.71,1127.20 1302.09,1128.50 1302.27,1130.39 1301.26,1132.86"/>
    </edge>
    <edge id=":1463845571_15" function="internal">
        <lane id=":1463845571_15_0" index="0" disallow="tram rail_urban rail rail_electric rail_fast ship" speed="13.89" length="24.65" shape="1298.13,1126.49 1322.56,1129.76"/>
    </edge>
    <edge id=":1463845571_16" function="internal">
        <lane id=":1463845571_16_0" index="0" disallow="tram rail_urban rail rail_electric rail_fast ship" speed="11.81" length="21.96" shape="1298.13,1126.49 1304.28,1126.65 1309.51,1125.38 1313.82,1122.68 1317.22,1118.55"/>
    </edge>
    <edge id=":1463845571_17" function="internal">
        <lane id=":1463845571_17_0" index="0" disallow="tram rail_urban rail rail_electric rail_fast ship" speed="3.65" length="4.67" shape="1298.13,1126.49 1299.43,1125.85 1299.93,1125.11 1299.63,1124.27 1298.55,1123.32"/>
    </edge>
    <edge id=":1463853040_0" function="internal">
        <lane id=":1463853040_0_0" index="0" disallow="tram rail_urban rail rail_electric rail_fast ship" speed="6.61" length="8.19" shape="1743.11,1056.97 1742.33,1059.07 1741.09,1060.54 1739.40,1061.35 1737.26,1061.53"/>
    </edge>
    <edge id=":1463853040_1" function="internal">
        <lane id=":1463853040_1_0" index="0" disallow="tram rail_urban rail rail_electric rail_fast ship" speed="7.04" length="10.76" shape="1743.11,1056.97 1742.61,1060.53 1742.96,1063.24 1744.14,1065.08 1746.16,1066.06"/>
    </edge>
    <edge id=":1463853040_2" function="internal">
        <lane id=":1463853040_2_0" index="0" disallow="tram rail_urban rail rail_electric rail_fast ship" speed="13.89" length="9.73" shape="1746.87,1062.94 1744.05,1062.31 1742.10,1061.95 1740.14,1061.73 1737.26,1061.53"/>
    </edge>
    <edge id=":1463853040_3" function="internal">
        <lane id=":1463853040_3_0" index="0" disallow="tram rail_urban rail rail_electric rail_fast ship" speed="3.65" length="2.34" shape="1746.87,1062.94 1745.52,1063.46 1744.95,1064.15"/>
    </edge>
    <edge id=":1463853040_6" function="internal">
        <lane id=":1463853040_6_0" index="0" disallow="tram rail_urban rail rail_electric rail_fast ship" speed="3.65" length="2.34" shape="1744.95,1064.15 1745.17,1065.02 1746.16,1066.06"/>
    </edge>
    <edge id=":1463853040_4" function="internal">
        <lane id=":1463853040_4_0" index="0" disallow="tram rail_urban rail rail_electric rail_fast ship" speed="13.89" length="9.22" shape="1737.06,1064.72 1739.79,1064.91 1741.65,1065.12 1743.49,1065.47 1746.16,1066.06"/>
    </edge>
    <edge id=":1463853040_5" function="internal">
        <lane id=":1463853040_5_0" index="0" disallow="tram rail_urban rail rail_electric rail_fast ship" speed="3.65" length="2.34" shape="1737.06,1064.72 1738.31,1064.00 1738.76,1063.22"/>
    </edge>
    <edge id=":1463853040_7" function="internal">
        <lane id=":1463853040_7_0" index="0" disallow="tram rail_urban rail rail_electric rail_fast ship" speed="3.65" length="2.34" shape="1738.76,1063.22 1738.41,1062.40 1737.26,1061.53"/>
    </edge>
    <edge id=":1464057146_0" function="internal">
        <lane id=":1464057146_0_0" index="0" disallow="tram rail_urban rail rail_electric rail_fast ship" speed="27.78" length="10.92" shape="1200.27,1361.46 1199.50,1364.57 1198.93,1366.69 1198.27,1368.77 1197.24,1371.80"/>
        <lane id=":1464057146_0_1" index="1" disallow="tram rail_urban rail rail_electric rail_fast ship" speed="27.78" length="10.92" shape="1203.38,1362.23 1202.58,1365.42 1202.00,1367.59 1201.33,1369.74 1200.27,1372.85"/>
    </edge>
    <edge id=":1464057146_2" function="internal">
        <lane id=":1464057146_2_0" index="0" disallow="tram rail_urban rail rail_electric rail_fast ship" speed="6.42" length="9.04" shape="1203.38,1362.23 1203.13,1364.71 1203.74,1366.64 1205.22,1368.03 1207.56,1368.88"/>
    </edge>
    <edge id=":1464058627_0" function="internal">
        <lane id=":1464058627_0_0" index="0" disallow="tram rail_urban rail rail_electric rail_fast ship" speed="27.78" length="8.21" shape="1676.55,2313.97 1676.95,2311.60 1677.60,2310.03 1678.25,2308.47 1678.66,2306.09"/>
    </edge>
    <edge id=":1464058663_0" function="internal">
        <lane id=":1464058663_0_0" index="0" disallow="pedestrian bicycle tram rail_urban rail rail_electric rail_fast ship" speed="6.52" length="8.69" shape="977.66,1413.21 975.30,1413.13 973.49,1412.33 972.23,1410.81 971.52,1408.55"/>
    </edge>
    <edge id=":1464058663_1" function="internal">
        <lane id=":1464058663_1_0" index="0" disallow="pedestrian bicycle tram rail_urban rail rail_electric rail_fast ship" speed="27.78" length="13.60" shape="977.66,1413.21 973.59,1413.67 970.82,1414.07 968.07,1414.63 964.09,1415.56"/>
        <lane id=":1464058663_1_1" index="1" disallow="pedestrian bicycle tram rail_urban rail rail_electric rail_fast ship" speed="27.78" length="13.60" shape="978.02,1416.39 974.06,1416.84 971.37,1417.23 968.70,1417.77 964.83,1418.68"/>
    </edge>
    <edge id=":1464058663_3" function="internal">
        <lane id=":1464058663_3_0" index="0" disallow="pedestrian bicycle tram rail_urban rail rail_electric rail_fast ship" speed="6.57" length="8.73" shape="968.36,1409.07 968.42,1411.45 967.73,1413.33 966.28,1414.70 964.09,1415.56"/>
    </edge>
    <edge id=":1464058663_4" function="internal">
        <lane id=":1464058663_4_0" index="0" disallow="tram rail_urban rail rail_electric rail_fast ship" speed="3.65" length="4.67" shape="968.36,1409.07 969.35,1410.12 970.20,1410.39 970.92,1409.86 971.52,1408.55"/>
    </edge>
    <edge id=":1464084610_0" function="internal">
        <lane id=":1464084610_0_0" index="0" disallow="pedestrian bicycle tram rail_urban rail rail_electric rail_fast ship" speed="6.22" length="9.05" shape="3176.62,1655.63 3174.09,1655.68 3172.26,1654.89 3171.14,1653.24 3170.73,1650.74"/>
    </edge>
    <edge id=":1464084610_1" function="internal">
        <lane id=":1464084610_1_0" index="0" disallow="pedestrian bicycle tram rail_urban rail rail_electric rail_fast ship" speed="27.78" length="14.23" shape="3176.62,1655.63 3162.55,1658.53"/>
        <lane id=":1464084610_1_1" index="1" disallow="pedestrian bicycle tram rail_urban rail rail_electric rail_fast ship" speed="27.78" length="14.23" shape="3177.14,1658.79 3163.34,1661.63"/>
    </edge>
    <edge id=":1464084610_3" function="internal">
        <lane id=":1464084610_3_0" index="0" disallow="pedestrian bicycle tram rail_urban rail rail_electric rail_fast ship" speed="7.44" length="10.01" shape="3167.53,1650.81 3167.27,1653.70 3166.35,1655.95 3164.78,1657.56 3162.55,1658.53"/>
    </edge>
    <edge id=":1464084610_4" function="internal">
        <lane id=":1464084610_4_0" index="0" disallow="tram rail_urban rail rail_electric rail_fast ship" speed="3.65" length="4.67" shape="3167.53,1650.81 3168.35,1651.99 3169.16,1652.38 3169.95,1651.96 3170.73,1650.74"/>
    </edge>
    <edge id=":1464088395_0" function="internal">
        <lane id=":1464088395_0_0" index="0" disallow="pedestrian bicycle tram rail_urban rail rail_electric rail_fast ship" speed="6.87" length="9.56" shape="4547.71,1906.11 4546.79,1908.67 4545.36,1910.40 4543.42,1911.28 4540.96,1911.32"/>
    </edge>
    <edge id=":1464088395_1" function="internal">
        <lane id=":1464088395_1_0" index="0" disallow="tram rail_urban rail rail_electric rail_fast ship" speed="3.65" length="4.67" shape="4547.71,1906.11 4548.23,1907.45 4548.92,1908.02 4549.79,1907.80 4550.83,1906.80"/>
    </edge>
    <edge id=":1464088395_2" function="internal">
        <lane id=":1464088395_2_0" index="0" disallow="pedestrian bicycle tram rail_urban rail rail_electric rail_fast ship" speed="6.27" length="9.04" shape="4555.35,1913.05 4552.90,1912.44 4551.33,1911.19 4550.64,1909.31 4550.83,1906.80"/>
    </edge>
    <edge id=":1464088395_3" function="internal">
        <lane id=":1464088395_3_0" index="0" disallow="pedestrian bicycle tram rail_urban rail rail_electric rail_fast ship" speed="27.78" length="14.55" shape="4555.35,1913.05 4540.96,1911.32"/>
        <lane id=":1464088395_3_1" index="1" disallow="pedestrian bicycle tram rail_urban rail rail_electric rail_fast ship" speed="27.78" length="14.55" shape="4555.02,1916.24 4540.52,1914.49"/>
    </edge>
    <edge id=":1464088452_0" function="internal">
        <lane id=":1464088452_0_0" index="0" disallow="pedestrian bicycle tram rail_urban rail rail_electric rail_fast ship" speed="6.47" length="9.03" shape="3961.68,1652.63 3960.45,1654.78 3958.83,1656.02 3956.82,1656.33 3954.42,1655.71"/>
    </edge>
    <edge id=":1464088452_1" function="internal">
        <lane id=":1464088452_1_0" index="0" disallow="tram rail_urban rail rail_electric rail_fast ship" speed="3.65" length="4.67" shape="3961.68,1652.63 3961.98,1654.04 3962.58,1654.70 3963.47,1654.62 3964.66,1653.80"/>
    </edge>
    <edge id=":1464088452_2" function="internal">
        <lane id=":1464088452_2_0" index="0" disallow="pedestrian bicycle tram rail_urban rail rail_electric rail_fast ship" speed="6.97" length="9.41" shape="3967.22,1661.89 3965.29,1660.40 3964.22,1658.55 3964.01,1656.35 3964.66,1653.80"/>
    </edge>
    <edge id=":1464088452_3" function="internal">
        <lane id=":1464088452_3_0" index="0" disallow="pedestrian bicycle tram rail_urban rail rail_electric rail_fast ship" speed="27.78" length="14.04" shape="3967.22,1661.89 3963.53,1659.84 3960.96,1658.52 3958.32,1657.34 3954.42,1655.71"/>
        <lane id=":1464088452_3_1" index="1" disallow="pedestrian bicycle tram rail_urban rail rail_electric rail_fast ship" speed="27.78" length="14.04" shape="3965.65,1664.68 3962.06,1662.69 3959.56,1661.40 3956.99,1660.25 3953.20,1658.67"/>
    </edge>
    <edge id=":1464112021_0" function="internal">
        <lane id=":1464112021_0_0" index="0" disallow="tram rail_urban rail rail_electric rail_fast ship" speed="3.65" length="4.67" shape="4319.20,3536.37 4320.32,3537.28 4321.20,3537.43 4321.84,3536.81 4322.25,3535.43"/>
    </edge>
    <edge id=":1464219855_0" function="internal">
        <lane id=":1464219855_0_0" index="0" disallow="tram rail_urban rail rail_electric rail_fast ship" speed="27.78" length="15.46" shape="1478.32,1322.16 1477.74,1326.76 1477.41,1329.92 1477.23,1333.09 1477.12,1337.73"/>
        <lane id=":1464219855_0_1" index="1" disallow="tram rail_urban rail rail_electric rail_fast ship" speed="27.78" length="15.46" shape="1481.50,1322.57 1480.92,1327.07 1480.60,1330.16 1480.43,1333.26 1480.32,1337.79"/>
    </edge>
    <edge id=":1464219855_2" function="internal">
        <lane id=":1464219855_2_0" index="0" disallow="tram rail_urban rail rail_electric rail_fast ship" speed="8.50" length="5.54" shape="1481.50,1322.57 1481.74,1326.79 1482.45,1327.89"/>
    </edge>
    <edge id=":1464219855_3" function="internal">
        <lane id=":1464219855_3_0" index="0" disallow="tram rail_urban rail rail_electric rail_fast ship" speed="3.65" length="2.34" shape="1481.50,1322.57 1482.14,1323.86 1482.88,1324.36"/>
    </edge>
    <edge id=":1464219855_11" function="internal">
        <lane id=":1464219855_11_0" index="0" disallow="tram rail_urban rail rail_electric rail_fast ship" speed="8.50" length="11.94" shape="1482.45,1327.89 1483.70,1329.85 1487.40,1331.73 1492.82,1332.44"/>
    </edge>
    <edge id=":1464219855_12" function="internal">
        <lane id=":1464219855_12_0" index="0" disallow="tram rail_urban rail rail_electric rail_fast ship" speed="3.65" length="2.34" shape="1482.88,1324.36 1483.72,1324.07 1484.67,1322.98"/>
    </edge>
    <edge id=":1464219855_4" function="internal">
        <lane id=":1464219855_4_0" index="0" disallow="tram rail_urban rail rail_electric rail_fast ship" speed="6.28" length="9.04" shape="1492.88,1329.24 1490.40,1328.83 1488.73,1327.72 1487.88,1325.91 1487.84,1323.39"/>
    </edge>
    <edge id=":1464219855_5" function="internal">
        <lane id=":1464219855_5_0" index="0" disallow="tram rail_urban rail rail_electric rail_fast ship" speed="8.75" length="17.18" shape="1492.88,1329.24 1487.45,1329.68 1483.55,1331.26 1481.17,1333.96 1480.32,1337.79"/>
    </edge>
    <edge id=":1464219855_6" function="internal">
        <lane id=":1464219855_6_0" index="0" disallow="tram rail_urban rail rail_electric rail_fast ship" speed="3.65" length="4.67" shape="1492.88,1329.24 1491.67,1330.02 1491.25,1330.81 1491.64,1331.62 1492.82,1332.44"/>
    </edge>
    <edge id=":1464219855_7" function="internal">
        <lane id=":1464219855_7_0" index="0" disallow="tram rail_urban rail rail_electric rail_fast ship" speed="6.61" length="9.35" shape="1486.72,1337.92 1487.14,1335.48 1488.30,1333.75 1490.19,1332.74 1492.82,1332.44"/>
    </edge>
    <edge id=":1464219855_8" function="internal">
        <lane id=":1464219855_8_0" index="0" disallow="tram rail_urban rail rail_electric rail_fast ship" speed="27.78" length="14.76" shape="1486.72,1337.92 1486.83,1333.59 1486.99,1330.63 1487.29,1327.69 1487.84,1323.39"/>
        <lane id=":1464219855_8_1" index="1" disallow="tram rail_urban rail rail_electric rail_fast ship" speed="27.78" length="14.76" shape="1483.52,1337.86 1483.63,1333.43 1483.79,1330.39 1484.11,1327.38 1484.67,1322.98"/>
    </edge>
    <edge id=":1464219855_10" function="internal">
        <lane id=":1464219855_10_0" index="0" disallow="tram rail_urban rail rail_electric rail_fast ship" speed="3.65" length="2.34" shape="1483.52,1337.86 1482.74,1336.64 1481.95,1336.22"/>
    </edge>
    <edge id=":1464219855_13" function="internal">
        <lane id=":1464219855_13_0" index="0" disallow="tram rail_urban rail rail_electric rail_fast ship" speed="3.65" length="2.34" shape="1481.95,1336.22 1481.14,1336.61 1480.32,1337.79"/>
    </edge>
    <edge id=":1464219860_0" function="internal">
        <lane id=":1464219860_0_0" index="0" disallow="tram rail_urban rail rail_electric rail_fast ship" speed="27.78" length="11.27" shape="1480.18,1279.57 1479.23,1276.55 1478.83,1274.41 1478.75,1272.21 1478.77,1269.02"/>
        <lane id=":1464219860_0_1" index="1" disallow="tram rail_urban rail rail_electric rail_fast ship" speed="27.78" length="11.27" shape="1477.16,1280.62 1476.11,1277.30 1475.65,1274.94 1475.56,1272.53 1475.57,1269.03"/>
    </edge>
    <edge id=":1464219860_2" function="internal">
        <lane id=":1464219860_2_0" index="0" disallow="tram rail_urban rail rail_electric rail_fast ship" speed="9.74" length="4.33" shape="1477.16,1280.62 1475.55,1278.05 1474.47,1277.33"/>
    </edge>
    <edge id=":1464219860_3" function="internal">
        <lane id=":1464219860_3_0" index="0" disallow="tram rail_urban rail rail_electric rail_fast ship" speed="3.65" length="2.34" shape="1477.16,1280.62 1476.01,1279.75 1475.12,1279.63"/>
    </edge>
    <edge id=":1464219860_11" function="internal">
        <lane id=":1464219860_11_0" index="0" disallow="tram rail_urban rail rail_electric rail_fast ship" speed="9.74" length="11.45" shape="1474.47,1277.33 1472.74,1276.18 1468.75,1275.02 1463.56,1274.58"/>
    </edge>
    <edge id=":1464219860_12" function="internal">
        <lane id=":1464219860_12_0" index="0" disallow="tram rail_urban rail rail_electric rail_fast ship" speed="3.65" length="2.34" shape="1475.12,1279.63 1474.50,1280.27 1474.13,1281.66"/>
    </edge>
    <edge id=":1464219860_4" function="internal">
        <lane id=":1464219860_4_0" index="0" disallow="tram rail_urban rail rail_electric rail_fast ship" speed="7.75" length="9.72" shape="1463.50,1277.78 1466.20,1278.12 1468.37,1279.06 1470.01,1280.59 1471.11,1282.71"/>
    </edge>
    <edge id=":1464219860_5" function="internal">