<?xml version="1.0" encoding="UTF-8"?>

<!-- generated on Thu Nov  5 09:13:01 2020 by Eclipse SUMO polyconvert Version 1.7.0
<configuration xmlns:xsi="http://www.w3.org/2001/XMLSchema-instance" xsi:noNamespaceSchemaLocation="http://sumo.dlr.de/xsd/polyconvertConfiguration.xsd">

    <input>
        <net-file value="osm.net.xml"/>
        <osm-files value="osm_bbox.osm.xml"/>
        <osm.keep-full-type value="true"/>
        <type-file value="/opt/sumo-1.7.0/data/typemap/osmPolyconvert.typ.xml"/>
    </input>

    <output>
        <output-file value="osm.poly.xml"/>
    </output>

    <processing>
        <poi-layer-offset value="5"/>
    </processing>

    <report>
        <verbose value="true"/>
    </report>

</configuration>
-->

<additional xmlns:xsi="http://www.w3.org/2001/XMLSchema-instance" xsi:noNamespaceSchemaLocation="http://sumo.dlr.de/xsd/additional_file.xsd">
    <location netOffset="-471377.93,-1473732.35" convBoundary="-0.00,-0.00,5244.87,5377.01" origBoundary="74.735689,13.330811,74.784122,13.379438" projParameter="+proj=utm +zone=43 +ellps=WGS84 +datum=WGS84 +units=m +no_defs"/>

    <poly id="133178810" type="amenity.parking" color="184,184,179" fill="1" layer="-1.00" shape="1349.839709,1072.023681 1344.286337,1127.412906 1319.690249,1124.584640 1349.839709,1072.023681"/>
    <poly id="133179501" type="amenity.college" color="237,199,199" fill="1" layer="-1.00" shape="1501.486352,1087.142819 1551.362859,1094.855995 1542.121061,1144.210659 1497.756720,1136.491941 1492.523882,1134.196943 1501.486352,1087.142819"/>
    <poly id="133179501#1" type="building.no" color="255,230,230" fill="1" layer="-1.00" shape="1501.486352,1087.142819 1551.362859,1094.855995 1542.121061,1144.210659 1497.756720,1136.491941 1492.523882,1134.196943 1501.486352,1087.142819"/>
    <poly id="133179873" type="amenity.place_of_worship" color="237,199,199" fill="1" layer="-1.00" shape="1784.730696,1135.628920 1759.167090,1129.019034 1754.814314,1129.598452 1753.077151,1135.948066 1749.297176,1135.376774 1746.695125,1143.175984 1751.536915,1144.299166 1749.315932,1154.143914 1773.720216,1160.179879 1777.695367,1161.005337 1784.730696,1135.628920"/>
    <poly id="133180145" type="amenity.place_of_worship" color="237,199,199" fill="1" layer="-1.00" shape="1763.464443,1116.318985 1769.292788,1086.000388 1808.015420,1094.056950 1805.904105,1105.306079 1813.085015,1106.426939 1811.111667,1114.855880 1805.013649,1113.700764 1802.976729,1123.534265 1763.464443,1116.318985"/>
    <poly id="133180422" type="amenity.place_of_worship" color="237,199,199" fill="1" layer="-1.00" shape="1764.352089,1083.439630 1707.410595,1071.375875 1696.425008,1120.743285 1702.816282,1122.760687 1701.663333,1128.534650 1740.795945,1135.097737 1741.742892,1129.069623 1748.425101,1129.638013 1751.024856,1119.538529 1757.708217,1121.257058 1764.352089,1083.439630"/>
    <poly id="133181379" type="amenity.place_of_worship" color="237,199,199" fill="1" layer="-1.00" shape="1802.668029,1063.749508 1811.637108,1022.755836 1833.623947,1026.162221 1825.241059,1068.604032 1802.668029,1063.749508"/>
    <poly id="133181619" type="amenity.place_of_worship" color="237,199,199" fill="1" layer="-1.00" shape="1829.363005,1064.585501 1833.434033,1042.065280 1854.262419,1045.771429 1850.808355,1068.003497 1829.363005,1064.585501"/>
    <poly id="133183152" type="amenity.college" color="237,199,199" fill="1" layer="-1.00" shape="3085.883245,1704.100005 3103.993068,1822.093564 3137.793993,1928.847356 3148.275612,1962.313063 3177.690321,1954.499648 3240.394731,1914.030707 3262.652630,1895.828673 3331.004444,1895.476728 3324.564345,1852.761814 3401.803827,1826.136527 3472.078267,1808.763318 3484.834287,1785.085096 3480.154103,1748.141311 3476.036542,1687.541773 3474.984784,1651.379786 3472.808687,1640.378105 3347.312646,1653.490156 3240.632012,1672.214059 3157.453398,1682.610793 3085.883245,1704.100005"/>
    <poly id="133242919" type="amenity.place_of_worship" color="237,199,199" fill="1" layer="-1.00" shape="1834.497055,1239.489856 1838.571131,1241.797133 1864.891684,1247.433146 1869.363674,1246.964217 1871.869693,1251.462745 1864.161321,1275.247311 1862.022781,1280.911658 1856.615117,1276.991088 1831.626469,1271.243167 1824.664469,1272.411302 1825.818583,1267.787481 1826.973855,1264.324856 1827.555181,1260.862803 1821.736452,1257.396069 1821.733575,1254.509667 1825.803627,1252.780403 1831.034121,1252.775191 1834.497055,1239.489856"/>
    <poly id="133242970" type="natural.water" color="181,209,209" fill="1" layer="-4.00" shape="1788.224340,1142.271905 1790.828423,1136.496497 1793.445642,1133.032412 1799.249822,1132.739087 1805.932030,1133.307492 1812.323292,1135.324919 1817.437741,1138.383169 1821.512980,1141.840580 1823.954846,1147.146477 1827.738840,1151.754317 1828.025006,1156.376703 1825.424081,1165.326042 1820.495736,1175.140306 1811.494081,1172.561469 1798.420629,1169.975638 1790.567717,1168.247207 1781.568065,1167.681120 1778.664103,1165.947752 1781.558561,1158.159312 1782.140170,1154.984792 1782.709218,1150.074019 1784.447248,1144.587010 1788.224340,1142.271905"/>
    <poly id="133242977" type="amenity.place_of_worship" color="237,199,199" fill="1" layer="-1.00" shape="1823.357988,1135.026385 1828.863638,1117.702472 1829.153724,1115.390848 1850.677272,1121.252809 1844.567078,1140.490530 1823.357988,1135.026385"/>
    <poly id="133242998" type="amenity.place_of_worship" color="237,199,199" fill="1" layer="-1.00" shape="1779.242092,1169.994777 1807.718425,1176.314242 1812.138397,1177.968688 1818.465026,1180.340070 1806.876662,1211.814540 1818.099337,1215.441768 1812.128170,1232.876738 1776.393171,1223.390577 1777.547567,1219.054288 1768.252374,1215.314561 1779.242092,1169.994777"/>
    <poly id="133243001" type="amenity.place_of_worship" color="237,199,199" fill="1" layer="-1.00" shape="1718.525028,1150.746408 1747.598551,1158.613475 1742.414726,1183.656281 1709.835231,1178.457953 1715.904068,1150.461495 1718.525028,1150.746408"/>
    <poly id="133243002" type="amenity.place_of_worship" color="237,199,199" fill="1" layer="-1.00" shape="1754.919425,1245.629600 1806.055801,1257.411704 1795.629088,1291.771427 1744.784872,1279.701518 1754.919425,1245.629600"/>
    <poly id="133243004" type="amenity.school" color="237,199,199" fill="1" layer="-1.00" shape="1735.229047,1307.701458 1740.146080,1286.629103 1782.855001,1296.119312 1791.163154,1298.300707 1800.001306,1299.851210 1805.222682,1301.571209 1795.381516,1325.833462 1735.229047,1307.701458"/>
    <poly id="133243035" type="amenity.place_of_worship" color="237,199,199" fill="1" layer="-1.00" shape="1658.740976,1090.081202 1683.781917,1093.771936 1680.724173,1111.502611 1656.031192,1109.216027 1658.740976,1090.081202"/>
    <poly id="133243048" type="amenity.place_of_worship" color="237,199,199" fill="1" layer="-1.00" shape="1646.589546,1143.055045 1677.967818,1149.017574 1681.059587,1122.019404 1651.664377,1117.393023 1646.589546,1143.055045"/>
    <poly id="133243052" type="amenity.place_of_worship" color="237,199,199" fill="1" layer="-1.00" shape="1667.580973,1039.377786 1689.080247,1042.530184 1686.697850,1064.197192 1664.635217,1060.791004 1667.580973,1039.377786"/>
    <poly id="133262402" type="amenity.college" color="237,199,199" fill="1" layer="-1.00" shape="1134.500906,1263.873746 1202.921468,1286.806659 1217.540957,1233.774781 1236.092350,1192.196061 1236.898897,1186.654667 1230.230528,1178.411427 1178.804530,1180.366017 1144.295712,1184.205565 1123.393358,1192.886152 1118.187647,1217.132863 1115.530201,1234.111187 1118.219537,1248.308227 1134.500906,1263.873746"/>
    <poly id="134019925" type="shop.mall" color="237,199,255" fill="1" layer="-1.00" shape="1308.739881,1154.598895 1318.497764,1155.329939 1319.983892,1136.483852 1326.611448,1136.543478 1337.830654,1136.653741 1335.606556,1153.952312 1333.167694,1173.042663 1332.790759,1175.100025 1307.252807,1172.504966 1308.739881,1154.598895"/>
    <poly id="134019927" type="tourism.hotel" color="207,245,201" fill="1" layer="-2.00" shape="1335.606556,1153.952312 1359.259900,1156.217537 1355.523546,1177.310886 1332.790759,1175.100025 1335.606556,1153.952312"/>
    <poly id="134023566" type="amenity.cinema" color="237,199,199" fill="1" layer="-1.00" shape="1538.330007,1433.651254 1541.777478,1394.432478 1569.925568,1397.578080 1566.490053,1437.958037 1538.330007,1433.651254"/>
    <poly id="134023567" type="tourism.hotel" color="207,245,201" fill="1" layer="-2.00" shape="1207.812462,1113.141787 1227.381689,1113.895975 1228.159008,1100.922947 1218.241278,1102.757791 1220.046042,1077.851028 1206.465626,1077.345096 1207.812462,1113.141787"/>
    <poly id="134023568" type="tourism.hotel" color="207,245,201" fill="1" layer="-2.00" shape="1484.688190,1482.154940 1486.696408,1454.759706 1543.585741,1458.738888 1540.127537,1487.296775 1484.688190,1482.154940"/>
    <poly id="134023569" type="shop.clothes" color="237,199,255" fill="1" layer="-1.00" shape="1216.886194,1473.203384 1234.850436,1471.979643 1235.982597,1488.434323 1218.018355,1489.647005 1216.886194,1473.203384"/>
    <poly id="134023576" type="amenity.fuel" color="237,199,199" fill="1" layer="-1.00" shape="2468.087828,1747.713638 2501.398972,1748.930913 2500.731437,1708.333899 2467.733680,1706.497013 2468.087828,1747.713638"/>
    <poly id="135257138" type="tourism.hotel" color="207,245,201" fill="1" layer="-2.00" shape="1138.671302,1370.942986 1144.712774,1285.008167 1209.228528,1301.818386 1187.094689,1387.692190 1138.671302,1370.942986"/>
    <poly id="172938170" type="amenity.marketplace" color="237,199,199" fill="1" layer="-1.00" shape="1275.834723,1116.810474 1278.391738,1064.852577 1336.774161,1066.651190 1305.457668,1121.679512 1275.834723,1116.810474"/>
    <poly id="172938172" type="amenity.bus_station" color="237,199,199" fill="1" layer="-1.00" shape="1206.663034,1366.538427 1287.709048,1377.835642 1283.633616,1363.573642 1288.185705,1271.491561 1233.567197,1254.073882 1206.663034,1366.538427"/>
    <poly id="172938173" type="building.yes" color="255,230,230" fill="1" layer="-1.00" shape="1208.110903,1363.363010 1228.063299,1272.713949 1250.429950,1277.015249 1233.380527,1357.851978 1271.719053,1361.119597 1268.242636,1371.507560 1208.110903,1363.363010"/>
    <poly id="173007566" type="amenity.hospital" color="237,199,199" fill="1" layer="-1.00" shape="1422.632026,1455.399517 1440.684440,1455.679852 1440.379426,1475.320991 1449.703432,1475.466391 1450.263252,1440.065883 1422.875980,1439.640158 1422.632026,1455.399517"/>
    <poly id="186116647" type="amenity.bus_station" color="237,199,199" fill="1" layer="-1.00" shape="1220.385102,1155.529275 1272.968315,1162.686225 1297.192054,1129.484523 1234.440715,1122.912949 1221.376295,1129.274139 1215.240026,1154.362262 1220.385102,1155.529275"/>
    <poly id="186253635" type="landuse.retail" color="194,194,130" fill="1" layer="-3.00" shape="1372.383010,1528.274097 1380.948784,1528.243297 1381.403321,1538.649381 1412.472499,1539.192984 1411.590401,1523.611708 1415.510515,1523.596681 1415.651914,1513.510706 1374.381425,1491.323862 1372.383010,1528.274097"/>
    <poly id="186253954" type="building.yes" color="255,230,230" fill="1" layer="-1.00" shape="3244.767574,1762.783483 3243.183935,1748.552026 3254.769744,1747.280361 3253.699423,1737.660028 3229.845647,1740.281422 3228.600633,1729.157229 3255.659463,1726.178921 3254.982295,1720.063926 3264.922277,1718.970763 3269.487555,1760.061754 3244.767574,1762.783483"/>
    <poly id="186253955" type="building.yes" color="255,230,230" fill="1" layer="-1.00" shape="3176.414558,1773.663825 3203.462175,1770.331586 3201.487165,1754.508003 3189.435915,1755.990253 3188.202918,1746.137837 3210.161531,1743.429726 3208.633900,1731.188841 3185.061937,1734.086483 3184.385412,1728.668206 3171.013172,1730.317599 3176.414558,1773.663825"/>
    <poly id="186253956" type="building.yes" color="255,230,230" fill="1" layer="-1.00" shape="3421.195860,1696.307636 3418.222168,1666.229910 3463.786480,1661.774678 3464.737577,1671.361951 3427.196844,1675.035529 3428.803965,1691.312889 3433.016060,1690.899758 3433.431510,1695.112853 3421.195860,1696.307636"/>
    <poly id="186253958" type="building.yes" color="255,230,230" fill="1" layer="-1.00" shape="3316.983588,1714.210558 3313.407991,1689.054668 3336.730585,1685.781368 3340.306160,1710.937261 3316.983588,1714.210558"/>
    <poly id="186253959" type="building.yes" color="255,230,230" fill="1" layer="-1.00" shape="3291.687310,1737.458316 3369.008828,1728.671054 3367.185467,1712.792024 3289.853085,1721.590359 3291.687310,1737.458316"/>
    <poly id="186253960" type="building.yes" color="255,230,230" fill="1" layer="-1.00" shape="3206.379737,1729.355176 3204.045142,1711.176363 3212.729173,1710.305549 3212.464636,1705.395597 3218.994212,1705.068714 3220.579895,1709.988477 3230.996534,1709.082854 3231.869762,1727.860236 3224.387241,1728.188017 3223.808665,1723.278361 3214.800051,1724.448072 3214.804410,1729.059677 3206.379737,1729.355176"/>
    <poly id="186253962" type="building.yes" color="255,230,230" fill="1" layer="-1.00" shape="3381.120005,1721.792030 3380.005967,1711.696197 3412.002358,1708.193638 3411.314344,1702.023354 3417.367136,1701.365195 3418.087906,1707.822983 3466.640150,1702.513409 3467.721410,1712.332801 3381.120005,1721.792030"/>
    <poly id="186284211" type="building.yes" color="255,230,230" fill="1" layer="-1.00" shape="2178.614477,1754.975119 2177.114293,1738.089468 2210.832873,1735.136731 2212.300116,1751.580056 2205.500095,1752.172867 2204.525566,1741.236451 2197.465668,1741.851637 2198.221142,1750.266811 2189.461250,1751.038497 2188.782436,1743.496911 2184.126366,1743.899615 2185.057174,1754.415830 2178.614477,1754.975119"/>
    <poly id="186284214" type="building.yes" color="255,230,230" fill="1" layer="-1.00" shape="2219.417604,1280.370316 2222.863438,1249.479094 2232.608939,1248.695395 2241.484894,1277.749785 2219.417604,1280.370316"/>
    <poly id="186284215" type="building.yes" color="255,230,230" fill="1" layer="-1.00" shape="2179.463480,1792.409076 2220.675493,1789.305212 2217.954721,1753.487711 2207.732918,1754.260827 2209.378511,1775.879599 2178.377442,1778.210359 2179.463480,1792.409076"/>
    <poly id="186284216" type="building.yes" color="255,230,230" fill="1" layer="-1.00" shape="2246.997721,1278.540626 2226.499327,1224.648028 2238.223030,1220.246091 2258.710575,1274.138708 2246.997721,1278.540626"/>
    <poly id="186284218" type="building.yes" color="255,230,230" fill="1" layer="-1.00" shape="2206.819031,1298.099239 2206.481118,1284.828748 2282.131850,1282.907673 2282.480555,1296.178153 2206.819031,1298.099239"/>
    <poly id="186284219" type="building.yes" color="255,230,230" fill="1" layer="-1.00" shape="2202.769600,1276.748252 2209.156310,1219.080255 2221.589568,1220.439362 2215.202831,1278.107356 2202.769600,1276.748252"/>
    <poly id="186284220" type="building.yes" color="255,230,230" fill="1" layer="-1.00" shape="2168.102373,1889.883430 2240.204085,1892.621547 2241.851604,1850.042690 2225.152743,1849.406604 2224.023136,1879.023778 2181.409684,1877.406815 2182.476250,1849.802443 2169.665117,1849.306334 2168.102373,1889.883430"/>
    <poly id="186284495" type="building.yes" color="255,230,230" fill="1" layer="-1.00" shape="1181.541431,1198.754384 1212.033331,1195.637815 1210.906885,1184.812177 1180.425791,1187.917677 1181.541431,1198.754384"/>
    <poly id="186284496" type="landuse.residential" color="235,235,227" fill="1" layer="-3.00" shape="1106.434517,1351.335126 1111.916915,1311.782432 1139.676871,1316.465188 1136.370788,1366.311605 1106.434517,1351.335126"/>
    <poly id="186284497" type="building.yes" color="255,230,230" fill="1" layer="-1.00" shape="1214.265929,1197.382865 1212.162837,1184.578657 1229.768252,1181.729605 1231.871335,1194.533814 1214.265929,1197.382865"/>
    <poly id="186284498" type="building.yes" color="255,230,230" fill="1" layer="-1.00" shape="1183.910317,1217.320072 1195.023614,1219.797014 1193.622136,1225.991498 1203.056519,1228.094150 1205.018569,1219.399754 1214.702081,1221.557451 1217.030660,1211.225947 1186.810282,1204.488642 1183.910317,1217.320072"/>
    <poly id="186284499" type="building.yes" color="255,230,230" fill="1" layer="-1.00" shape="1181.559102,1269.122951 1186.939548,1246.269511 1210.271164,1251.686755 1204.879882,1274.551260 1181.559102,1269.122951"/>
    <poly id="186284500" type="amenity.marketplace" color="237,199,199" fill="1" layer="-1.00" shape="1273.565466,1345.192721 1275.916630,1271.880044 1285.890639,1272.201672 1283.539436,1345.503288 1273.565466,1345.192721"/>
    <poly id="186284501" type="landuse.recreation_ground" color="194,194,130" fill="1" layer="-3.00" shape="1141.070749,1260.471909 1171.866355,1268.513540 1188.083486,1221.164354 1143.627484,1208.513988 1137.845448,1230.449948 1130.031673,1256.435590 1141.070749,1260.471909"/>
    <poly id="186284502" type="building.yes" color="255,230,230" fill="1" layer="-1.00" shape="1200.226295,1245.603475 1201.380089,1240.769503 1187.872818,1237.576164 1190.525538,1226.536550 1212.741607,1231.800108 1208.945899,1247.662621 1200.226295,1245.603475"/>
    <poly id="186291480" type="landuse.farmland" color="194,194,130" fill="1" layer="-3.00" shape="2647.158735,1212.648508 2828.373658,1177.837226 2934.064776,1130.403473 3022.247713,1017.185692 3111.801248,1103.681580 3179.234257,1160.195588 3228.021935,1150.904135 3279.073744,1073.509258 3287.119496,981.147895 3307.258941,954.919080 3349.676708,781.418659 3375.551496,681.232944 3349.446744,536.660969 3315.704200,492.821620 3130.962964,480.300304 2938.076649,466.626832 2879.986377,477.066764 2640.619389,451.905393 2653.515212,573.110743 2694.226530,621.565230 2698.926871,678.127536 2697.827101,739.318101 2554.144669,718.964624 2479.422040,763.770852 2536.610670,1030.348137 2599.463030,1152.666293 2647.158735,1212.648508"/>
    <poly id="246981628" type="building.yes" color="255,230,230" fill="1" layer="-1.00" shape="1448.472501,1232.589324 1466.787232,1235.114396 1471.238343,1203.248852 1452.923591,1200.723777 1448.472501,1232.589324"/>
    <poly id="246981631" type="building.yes" color="255,230,230" fill="1" layer="-1.00" shape="1365.179752,1163.211898 1394.530374,1166.577282 1396.011907,1153.835786 1366.661271,1150.470400 1365.179752,1163.211898"/>
    <poly id="246981636" type="building.yes" color="255,230,230" fill="1" layer="-1.00" shape="1365.712579,1336.296159 1377.374833,1335.554443 1373.986072,1282.883739 1362.323794,1283.625456 1365.712579,1336.296159"/>
    <poly id="246981638" type="building.yes" color="255,230,230" fill="1" layer="-1.00" shape="1355.938497,1234.098557 1389.531823,1235.225709 1390.015920,1221.357202 1356.411737,1220.219001 1355.938497,1234.098557"/>
    <poly id="246981641" type="building.yes" color="255,230,230" fill="1" layer="-1.00" shape="1406.182974,1263.210300 1428.046024,1262.137571 1425.879543,1218.677796 1404.016459,1219.750526 1406.182974,1263.210300"/>
    <poly id="246981645" type="building.yes" color="255,230,230" fill="1" layer="-1.00" shape="1427.842780,1232.499591 1440.035656,1231.702071 1438.232309,1204.642461 1426.050250,1205.439971 1427.842780,1232.499591"/>
    <poly id="246981647" type="building.yes" color="255,230,230" fill="1" layer="-1.00" shape="1359.911917,1201.171811 1387.971930,1202.669520 1389.417619,1175.927335 1361.357577,1174.429624 1359.911917,1201.171811"/>
    <poly id="246989551" type="building.yes" color="255,230,230" fill="1" layer="-1.00" shape="3674.991432,1213.898076 3710.770959,1213.765372 3710.713821,1198.846825 3674.934273,1198.979529 3674.991432,1213.898076"/>
    <poly id="246989552" type="building.yes" color="255,230,230" fill="1" layer="-1.00" shape="3670.275184,1476.288487 3691.196961,1476.269076 3691.174962,1452.547522 3670.253166,1452.566932 3670.262301,1462.409442 3685.888668,1462.394943 3685.892956,1467.017605 3670.266592,1467.032104 3670.275184,1476.288487"/>
    <poly id="286468378" type="natural.bare_rock" color="140,196,107" fill="1" layer="-4.00" shape="4237.821871,2281.670832 4210.292786,2302.884897 4220.985561,2332.015681 4242.337776,2365.549340 4246.812798,2404.395591 4242.401885,2436.194255 4217.560873,2483.892216 4227.376046,2524.503058 4229.177603,2552.757203 4249.618874,2549.210823 4270.027707,2521.821255 4302.007545,2512.956132 4315.300065,2471.439626 4357.939850,2455.509278 4342.777984,2393.714158 4366.769607,2388.395220 4401.440248,2397.189031 4401.407616,2360.992916 4389.823901,2328.323984 4366.673150,2281.554199 4345.334588,2263.027510 4323.247606,2267.117192 4237.821871,2281.670832"/>
    <poly id="367578943" type="landuse.residential" color="235,235,227" fill="1" layer="-3.00" shape="4157.781878,1408.137185 4133.669206,1400.373598 4128.436905,1398.354567 4135.533406,1378.342361 4163.718637,1386.975906 4157.781878,1408.137185"/>
    <poly id="407679411" type="building.yes" color="255,230,230" fill="1" layer="-1.00" shape="4379.879056,1915.721310 4399.190355,1919.452901 4400.591693,1912.329637 4381.269559,1908.598055 4379.879056,1915.721310"/>
    <poly id="407679417" type="building.yes" color="255,230,230" fill="1" layer="-1.00" shape="4376.113051,1930.444247 4386.575843,1932.746142 4389.530972,1919.450550 4379.068175,1917.148654 4376.113051,1930.444247"/>
    <poly id="407684854" type="building.yes" color="255,230,230" fill="1" layer="-1.00" shape="4315.774021,1834.207969 4318.969725,1835.498983 4321.422482,1829.513842 4318.226778,1828.222828 4315.774021,1834.207969"/>
    <poly id="407684860" type="building.yes" color="255,230,230" fill="1" layer="-1.00" shape="4356.308054,1847.663331 4373.008728,1850.390891 4378.189158,1819.033932 4361.488465,1816.306368 4356.308054,1847.663331"/>
    <poly id="407684861" type="building.yes" color="255,230,230" fill="1" layer="-1.00" shape="4306.406147,1833.276428 4310.662307,1833.703879 4312.356057,1826.635641 4308.381118,1825.842988 4307.484928,1828.730199 4306.406147,1833.276428"/>
    <poly id="407684862" type="building.yes" color="255,230,230" fill="1" layer="-1.00" shape="4320.345519,1836.072808 4323.595237,1837.220006 4324.308137,1835.217681 4327.601181,1836.375900 4328.897363,1832.736315 4322.365429,1830.430887 4320.345519,1836.072808"/>
    <poly id="407921308" type="building.yes" color="255,230,230" fill="1" layer="-1.00" shape="1779.924471,1061.648869 1789.661849,1063.519185 1791.848933,1052.236802 1782.122380,1050.366475 1779.924471,1061.648869"/>
    <poly id="407921323" type="building.yes" color="255,230,230" fill="1" layer="-1.00" shape="1750.734870,1056.922643 1764.458634,1060.005459 1767.348186,1047.295758 1753.624415,1044.212941 1750.734870,1056.922643"/>
    <poly id="408244954" type="building.yes" color="255,230,230" fill="1" layer="-1.00" shape="3771.370362,1786.953024 3766.961139,1796.677972 3769.116989,1797.638112 3768.133549,1799.795529 3771.199409,1801.164011 3771.458762,1800.577644 3776.712978,1802.928355 3781.532855,1792.285132 3775.986132,1789.801981 3776.277911,1789.149230 3771.370362,1786.953024"/>
    <poly id="408244957" type="building.yes" color="255,230,230" fill="1" layer="-1.00" shape="3713.018682,2003.288146 3721.618399,2005.005383 3722.502318,2000.636253 3729.206636,2001.979242 3730.855944,1993.871457 3715.551893,1990.800172 3713.018682,2003.288146"/>
    <poly id="408244962" type="building.yes" color="255,230,230" fill="1" layer="-1.00" shape="3770.018231,1893.961270 3767.837624,1901.350707 3775.246589,1903.500363 3777.416379,1896.121996 3770.018231,1893.961270"/>
    <poly id="408244964" type="building.yes" color="255,230,230" fill="1" layer="-1.00" shape="3858.129742,1702.238340 3850.102581,1722.616433 3858.238067,1725.782872 3866.265233,1705.404781 3858.129742,1702.238340"/>
    <poly id="408244965" type="building.yes" color="255,230,230" fill="1" layer="-1.00" shape="3843.284947,1645.408710 3833.341907,1690.206868 3856.109070,1695.206671 3866.052146,1650.408522 3843.284947,1645.408710"/>
    <poly id="408244969" type="building.yes" color="255,230,230" fill="1" layer="-1.00" shape="3838.712701,1748.505017 3850.519933,1752.464317 3853.965028,1742.320029 3842.157791,1738.360728 3838.712701,1748.505017"/>
    <poly id="408244978" type="building.yes" color="255,230,230" fill="1" layer="-1.00" shape="3818.539384,1679.249985 3832.262983,1682.776208 3839.870465,1653.529171 3826.136032,1650.014013 3818.539384,1679.249985"/>
    <poly id="408244981" type="building.yes" color="255,230,230" fill="1" layer="-1.00" shape="3844.410149,1785.270974 3840.338035,1796.554919 3855.081093,1801.816477 3859.164031,1790.521465 3844.410149,1785.270974"/>
    <poly id="408244987" type="building.yes" color="255,230,230" fill="1" layer="-1.00" shape="3909.697846,2044.235025 3918.048808,2046.317500 3921.695703,2031.893196 3913.344736,2029.810720 3909.697846,2044.235025"/>
    <poly id="408245000" type="building.yes" color="255,230,230" fill="1" layer="-1.00" shape="3897.943171,2109.018475 3910.852864,2110.897691 3913.736938,2091.265291 3900.827246,2089.397133 3897.943171,2109.018475"/>
    <poly id="408245002" type="building.yes" color="255,230,230" fill="1" layer="-1.00" shape="3799.067934,1983.114297 3797.946911,1988.722252 3803.394834,1989.801003 3804.515858,1984.193049 3799.067934,1983.114297"/>
    <poly id="408245004" type="building.yes" color="255,230,230" fill="1" layer="-1.00" shape="3824.458234,1803.359799 3824.212097,1806.533962 3826.973672,1806.741535 3827.219809,1803.567372 3824.458234,1803.359799"/>
    <poly id="408245019" type="building.yes" color="255,230,230" fill="1" layer="-1.00" shape="3897.928296,2034.005206 3909.615474,2037.090979 3915.345919,2015.686522 3903.658722,2012.589687 3897.928296,2034.005206"/>
    <poly id="408245022" type="building.yes" color="255,230,230" fill="1" layer="-1.00" shape="3841.718273,1696.226304 3835.909125,1714.501145 3843.253305,1716.805707 3849.051628,1698.530878 3841.718273,1696.226304"/>
    <poly id="408245028" type="building.yes" color="255,230,230" fill="1" layer="-1.00" shape="3812.464905,1785.477387 3820.600509,1788.787582 3823.820332,1780.976949 3815.684726,1777.666753 3812.464905,1785.477387"/>
    <poly id="408245036" type="building.yes" color="255,230,230" fill="1" layer="-1.00" shape="3842.144664,1923.787178 3839.686241,1935.246581 3849.856568,1937.404771 3852.314985,1925.934309 3842.144664,1923.787178"/>
    <poly id="408245039" type="building.yes" color="255,230,230" fill="1" layer="-1.00" shape="3766.580316,2052.307393 3774.281424,2054.246658 3778.230498,2038.793565 3776.421650,2038.330759 3776.022425,2039.890449 3770.130150,2038.402931 3766.580316,2052.307393"/>
    <poly id="408245046" type="building.yes" color="255,230,230" fill="1" layer="-1.00" shape="3847.535882,1710.619773 3853.103620,1712.395142 3856.537464,1701.786387 3850.980553,1700.011007 3847.535882,1710.619773"/>
    <poly id="408245048" type="building.yes" color="255,230,230" fill="1" layer="-1.00" shape="3831.641424,1830.735283 3840.283779,1831.667329 3840.616662,1828.614735 3831.974305,1827.682689 3831.641424,1830.735283"/>
    <poly id="408245054" type="building.yes" color="255,230,230" fill="1" layer="-1.00" shape="3833.154768,1780.835630 3829.256523,1792.771898 3838.301397,1795.694194 3842.199646,1783.757927 3833.154768,1780.835630"/>
    <poly id="408245064" type="building.yes" color="255,230,230" fill="1" layer="-1.00" shape="3889.210821,1939.613503 3882.009505,1963.032059 3892.906411,1966.339733 3900.107735,1942.921179 3889.210821,1939.613503"/>
    <poly id="408245066" type="building.yes" color="255,230,230" fill="1" layer="-1.00" shape="3779.549137,2012.682016 3775.671525,2023.446021 3785.409866,2026.898489 3789.276652,2016.134496 3779.549137,2012.682016"/>
    <poly id="408245074" type="building.yes" color="255,230,230" fill="1" layer="-1.00" shape="3878.464315,2099.658361 3888.463362,2104.039584 3895.130936,2089.026367 3885.131885,2084.645142 3878.464315,2099.658361"/>
    <poly id="408245075" type="building.yes" color="255,230,230" fill="1" layer="-1.00" shape="3961.012310,2016.838948 3959.404554,2023.099824 3974.221867,2026.835234 3975.829635,2020.585418 3961.012310,2016.838948"/>
    <poly id="408245080" type="building.yes" color="255,230,230" fill="1" layer="-1.00" shape="3802.312784,1721.012728 3793.885284,1741.700861 3832.028264,1757.037678 3840.444958,1736.349567 3802.312784,1721.012728"/>
    <poly id="408245082" type="building.yes" color="255,230,230" fill="1" layer="-1.00" shape="3776.069651,1809.862950 3774.546196,1813.569128 3784.274253,1817.530321 3785.808539,1813.824134 3776.069651,1809.862950"/>
    <poly id="408245085" type="building.yes" color="255,230,230" fill="1" layer="-1.00" shape="3882.499506,1907.150422 3878.783884,1917.494019 3892.140301,1922.248159 3895.866757,1911.904554 3882.499506,1907.150422"/>
    <poly id="408245086" type="building.yes" color="255,230,230" fill="1" layer="-1.00" shape="3768.412306,1738.218697 3785.483169,1742.969351 3792.650128,1717.549123 3775.579250,1712.798464 3768.412306,1738.218697"/>
    <poly id="408245089" type="building.yes" color="255,230,230" fill="1" layer="-1.00" shape="3728.448490,1896.631788 3738.100456,1900.305501 3744.647049,1883.312797 3734.984249,1879.639092 3728.448490,1896.631788"/>
    <poly id="408245093" type="building.yes" color="255,230,230" fill="1" layer="-1.00" shape="3906.081809,1962.689197 3917.120016,1966.571819 3920.565564,1956.925194 3909.516525,1953.042580 3906.081809,1962.689197"/>
    <poly id="408245095" type="building.yes" color="255,230,230" fill="1" layer="-1.00" shape="3814.783683,1704.844001 3811.934845,1715.695519 3816.364959,1716.841568 3819.213799,1705.990049 3814.783683,1704.844001"/>
    <poly id="408245099" type="building.yes" color="255,230,230" fill="1" layer="-1.00" shape="3747.954339,2005.135819 3761.970428,2008.949267 3764.852037,1998.462657 3760.021135,1997.140045 3758.186387,2003.799268 3749.001197,2001.308431 3747.954339,2005.135819"/>