<?xml version="1.0" encoding="UTF-8"?>

<!-- generated on Wed Jan 27 13:02:04 2021 by Eclipse SUMO netedit Version 1.7.0
<configuration xmlns:xsi="http://www.w3.org/2001/XMLSchema-instance" xsi:noNamespaceSchemaLocation="http://sumo.dlr.de/xsd/netconvertConfiguration.xsd">

    <input>
        <sumo-net-file value="osm.net.xml"/>
    </input>

    <output>
        <output-file value="osm.net.xml"/>
        <output.street-names value="true"/>
    </output>

    <processing>
        <geometry.min-radius.fix.railways value="false"/>
        <geometry.max-grade.fix value="false"/>
        <offset.disable-normalization value="true"/>
        <lefthand value="true"/>
    </processing>

    <junctions>
        <no-turnarounds value="true"/>
        <junctions.corner-detail value="5"/>
        <junctions.limit-turn-speed value="5.5"/>
        <rectangular-lane-cut value="false"/>
    </junctions>

    <pedestrian>
        <walkingareas value="false"/>
    </pedestrian>

    <netedit>
        <additional-files value="/home/shashwath/Sumo/Lab%20Test/2nd_sessionals/2021-01-27-12-34-30/parking.add.xml"/>
        <route-files value="/home/shashwath/Sumo/mini_proj/mod/osm_mod/flow.rou.xml"/>
    </netedit>

    <report>
        <aggregate-warnings value="5"/>
    </report>

</configuration>
-->

<routes xmlns:xsi="http://www.w3.org/2001/XMLSchema-instance" xsi:noNamespaceSchemaLocation="http://sumo.dlr.de/xsd/routes_file.xsd">
    <flow id="flow_0" begin="0.00" from="-54531638#3" to="-54531638#3" via="-54531638#2 -355391685#1 -355391685#0 26299191#1 164420820" end="3600.00" number="1800">
        <stop parkingArea="parkingArea_-54531638#3_0_0" duration="60.00"/>
        <stop parkingArea="parkingArea_-54531638#3_0_0" duration="60.00"/>
        <stop parkingArea="parkingArea_-54531638#2_0_1" duration="60.00"/>
    </flow>
</routes>
