<?xml version="1.0" encoding="UTF-8"?>

<!-- generated on Wed Jan 27 12:34:34 2021 by Eclipse SUMO duarouter Version 1.7.0
<configuration xmlns:xsi="http://www.w3.org/2001/XMLSchema-instance" xsi:noNamespaceSchemaLocation="http://sumo.dlr.de/xsd/duarouterConfiguration.xsd">

    <input>
        <net-file value="/home/shashwath/Sumo/Lab%20Test/2nd_sessionals/2021-01-27-12-34-30/osm.net.xml"/>
        <route-files value="/home/shashwath/Sumo/Lab%20Test/2nd_sessionals/2021-01-27-12-34-30/osm.passenger.trips.xml"/>
    </input>

    <output>
        <output-file value="/home/shashwath/Sumo/Lab%20Test/2nd_sessionals/2021-01-27-12-34-30/osm.passenger.trips.xml.tmp"/>
        <write-trips value="true"/>
    </output>

    <time>
        <begin value="0"/>
        <end value="3600"/>
    </time>

    <report>
        <no-warnings value="true"/>
        <ignore-errors value="true"/>
        <no-step-log value="true"/>
    </report>

</configuration>
-->

<routes xmlns:xsi="http://www.w3.org/2001/XMLSchema-instance" xsi:noNamespaceSchemaLocation="http://sumo.dlr.de/xsd/routes_file.xsd">
    <vType id="veh_passenger" vClass="passenger"/>
    <trip id="veh0" type="veh_passenger" depart="0.00" departLane="best" from="279806915" to="-184750308#0"/>
    <trip id="veh1" type="veh_passenger" depart="4.00" departLane="best" from="355210821" to="294202849#1-AddedOnRampEdge"/>
    <trip id="veh2" type="veh_passenger" depart="8.00" departLane="best" from="585612364#0" to="-22838314#2"/>
    <trip id="veh3" type="veh_passenger" depart="12.00" departLane="best" from="164420821#2" to="-184750308#1"/>
    <trip id="veh4" type="veh_passenger" depart="16.00" departLane="best" from="-355391679#1" to="184750308#1"/>
    <trip id="veh5" type="veh_passenger" depart="20.01" departLane="best" from="-184750308#0" to="-355210826"/>
    <trip id="veh6" type="veh_passenger" depart="24.01" departLane="best" from="279806937" to="22838314#0"/>
    <trip id="veh8" type="veh_passenger" depart="32.01" departLane="best" from="466857083" to="-132363057#0"/>
    <trip id="veh9" type="veh_passenger" depart="36.01" departLane="best" from="-54531638#3" to="-297768403#0"/>
    <trip id="veh10" type="veh_passenger" depart="40.01" departLane="best" departSpeed="max" from="585612367#0" to="-54531638#3"/>
    <trip id="veh11" type="veh_passenger" depart="44.01" departLane="best" from="466857089" to="26299191#1"/>
    <trip id="veh12" type="veh_passenger" depart="48.01" departLane="best" from="355391706#1" to="321398252"/>
    <trip id="veh14" type="veh_passenger" depart="56.02" departLane="best" from="132363057#1" to="22838314#1"/>
    <trip id="veh15" type="veh_passenger" depart="60.02" departLane="best" from="466857087#0" to="27191041#1"/>
    <trip id="veh16" type="veh_passenger" depart="64.02" departLane="best" from="54531638#0" to="22838314#4"/>
    <trip id="veh17" type="veh_passenger" depart="68.02" departLane="best" from="-355391684" to="-466857087#0"/>
    <trip id="veh18" type="veh_passenger" depart="72.02" departLane="best" from="-22838314#1" to="-355391685#0"/>
    <trip id="veh19" type="veh_passenger" depart="76.02" departLane="best" from="-22838314#3" to="-466857083"/>
    <trip id="veh20" type="veh_passenger" depart="80.02" departLane="best" from="279806915" to="132363048"/>
    <trip id="veh21" type="veh_passenger" depart="84.02" departLane="best" from="132363057#0" to="-355391674"/>
    <trip id="veh22" type="veh_passenger" depart="88.03" departLane="best" from="279806937" to="27191041#0"/>
    <trip id="veh23" type="veh_passenger" depart="92.03" departLane="best" from="-318725571#0" to="321398252"/>
    <trip id="veh24" type="veh_passenger" depart="96.03" departLane="best" from="-297768403#2" to="157712861#0"/>
    <trip id="veh25" type="veh_passenger" depart="100.03" departLane="best" from="585612367#2" to="279806915"/>
    <trip id="veh26" type="veh_passenger" depart="104.03" departLane="best" departSpeed="max" from="26299191#0" to="294202849#1-AddedOnRampEdge"/>
    <trip id="veh27" type="veh_passenger" depart="108.03" departLane="best" from="466857088" to="355210814#0"/>
    <trip id="veh28" type="veh_passenger" depart="112.03" departLane="best" from="-355391684" to="-184750308#1"/>
    <trip id="veh29" type="veh_passenger" depart="116.03" departLane="best" from="-54531638#1" to="-355391706#0"/>
    <trip id="veh30" type="veh_passenger" depart="120.03" departLane="best" from="-355391674" to="585612364#0"/>
    <trip id="veh31" type="veh_passenger" depart="124.04" departLane="best" from="291858158" to="164420820"/>
    <trip id="veh32" type="veh_passenger" depart="128.04" departLane="best" from="585612365" to="174471202"/>
    <trip id="veh33" type="veh_passenger" depart="132.04" departLane="best" from="-355391699" to="-355391696"/>
    <trip id="veh34" type="veh_passenger" depart="136.04" departLane="best" departSpeed="max" from="26299191#0" to="-355391699"/>
    <trip id="veh35" type="veh_passenger" depart="140.04" departLane="best" departSpeed="max" from="26299191#0" to="466857089"/>
    <trip id="veh36" type="veh_passenger" depart="144.04" departLane="best" from="585612367#3" to="209721150#0"/>
    <trip id="veh37" type="veh_passenger" depart="148.04" departLane="best" from="-22838314#2" to="-209721150#2"/>
    <trip id="veh38" type="veh_passenger" depart="152.04" departLane="best" from="355391697#0" to="164420821#3"/>
    <trip id="veh39" type="veh_passenger" depart="156.04" departLane="best" from="-220826302#2" to="157712861#1"/>
    <trip id="veh40" type="veh_passenger" depart="160.05" departLane="best" from="585612367#1" to="466857083"/>
    <trip id="veh41" type="veh_passenger" depart="164.05" departLane="best" from="-132363057#1" to="321397980"/>
    <trip id="veh42" type="veh_passenger" depart="168.05" departLane="best" from="294202849#1-AddedOnRampEdge" to="22838314#0"/>
    <trip id="veh43" type="veh_passenger" depart="172.05" departLane="best" from="-355391706#0" to="279806915"/>
    <trip id="veh44" type="veh_passenger" depart="176.05" departLane="best" from="-22838314#4" to="164420821#4"/>
    <trip id="veh45" type="veh_passenger" depart="180.05" departLane="best" from="184750308#0" to="585612364#2"/>
    <trip id="veh46" type="veh_passenger" depart="184.05" departLane="best" from="22838314#0" to="-318725571#2"/>
    <trip id="veh47" type="veh_passenger" depart="188.05" departLane="best" from="585612365" to="466857085#0"/>
    <trip id="veh48" type="veh_passenger" depart="192.05" departLane="best" from="-466857087#1" to="279806902#1"/>
    <trip id="veh49" type="veh_passenger" depart="196.06" departLane="best" from="27191041#0" to="-297768403#0"/>
    <trip id="veh50" type="veh_passenger" depart="200.06" departLane="best" from="355391679#1" to="22838314#0"/>
    <trip id="veh51" type="veh_passenger" depart="204.06" departLane="best" from="355391689" to="220826302#1"/>
    <trip id="veh52" type="veh_passenger" depart="208.06" departLane="best" from="-132363048" to="-54531638#2"/>
    <trip id="veh53" type="veh_passenger" depart="212.06" departLane="best" from="-157712861#0" to="54531638#2"/>
    <trip id="veh54" type="veh_passenger" depart="216.06" departLane="best" from="-54531638#0" to="-220826302#1"/>
    <trip id="veh55" type="veh_passenger" depart="220.06" departLane="best" from="54531638#2" to="585612364#1"/>
    <trip id="veh56" type="veh_passenger" depart="224.06" departLane="best" from="-22838314#2" to="174471202"/>
    <trip id="veh57" type="veh_passenger" depart="228.07" departLane="best" from="-22838314#0" to="321398252"/>
    <trip id="veh58" type="veh_passenger" depart="232.07" departLane="best" from="355391684" to="-27191041#1"/>
    <trip id="veh59" type="veh_passenger" depart="236.07" departLane="best" from="209721150#2" to="22838314#1"/>
    <trip id="veh60" type="veh_passenger" depart="240.07" departLane="best" from="-355391699" to="466857085#0"/>
    <trip id="veh61" type="veh_passenger" depart="244.07" departLane="best" from="22838314#4" to="321398252"/>
    <trip id="veh62" type="veh_passenger" depart="248.07" departLane="best" from="-355210826" to="-54531638#0"/>
    <trip id="veh63" type="veh_passenger" depart="252.07" departLane="best" from="585612367#3" to="279806937"/>
    <trip id="veh64" type="veh_passenger" depart="256.07" departLane="best" from="164420821#4" to="209721150#2"/>
    <trip id="veh65" type="veh_passenger" depart="260.07" departLane="best" from="-27191041#0" to="-355391684"/>
    <trip id="veh67" type="veh_passenger" depart="268.08" departLane="best" from="-355391684" to="-355391680"/>
    <trip id="veh68" type="veh_passenger" depart="272.08" departLane="best" from="-22838314#0" to="279806902#0"/>
    <trip id="veh69" type="veh_passenger" depart="276.08" departLane="best" from="-355391684" to="54531638#0"/>
    <trip id="veh70" type="veh_passenger" depart="280.08" departLane="best" from="54531638#0" to="-22838314#0"/>
    <trip id="veh71" type="veh_passenger" depart="284.08" departLane="best" from="-355391685#1" to="294202849#1"/>
    <trip id="veh72" type="veh_passenger" depart="288.08" departLane="best" from="-355391679#0" to="-279806915"/>
    <trip id="veh73" type="veh_passenger" depart="292.08" departLane="best" departSpeed="max" from="585612367#0" to="22838314#3"/>
    <trip id="veh74" type="veh_passenger" depart="296.08" departLane="best" from="209721150#1" to="355210814#1"/>
    <trip id="veh76" type="veh_passenger" depart="304.09" departLane="best" from="-22838314#3" to="164420821#4"/>
    <trip id="veh77" type="veh_passenger" depart="308.09" departLane="best" from="164420821#2" to="174471202"/>
    <trip id="veh78" type="veh_passenger" depart="312.09" departLane="best" from="355210814#1" to="294202849#1-AddedOnRampEdge"/>
    <trip id="veh79" type="veh_passenger" depart="316.09" departLane="best" from="585612367#2" to="-22838314#3"/>
    <trip id="veh80" type="veh_passenger" depart="320.09" departLane="best" from="-355210814#1" to="164420821#5"/>
    <trip id="veh81" type="veh_passenger" depart="324.09" departLane="best" from="164420821#2" to="-466857085#0"/>
    <trip id="veh82" type="veh_passenger" depart="328.09" departLane="best" from="-355391696" to="54531638#2"/>
    <trip id="veh83" type="veh_passenger" depart="332.09" departLane="best" from="164420821#4" to="466857083"/>
    <trip id="veh84" type="veh_passenger" depart="336.10" departLane="best" departSpeed="max" from="26299191#0" to="-220826299"/>
    <trip id="veh85" type="veh_passenger" depart="340.10" departLane="best" from="585612367#3" to="355391696"/>
    <trip id="veh86" type="veh_passenger" depart="344.10" departLane="best" departSpeed="max" from="585612367#0" to="54531638#2"/>
    <trip id="veh87" type="veh_passenger" depart="348.10" departLane="best" from="466857089" to="-318725571#0"/>
    <trip id="veh88" type="veh_passenger" depart="352.10" departLane="best" from="132363057#1" to="585612367#2"/>
    <trip id="veh89" type="veh_passenger" depart="356.10" departLane="best" from="-355391699" to="355210814#1"/>
    <trip id="veh90" type="veh_passenger" depart="360.10" departLane="best" from="184750308#0" to="164420821#3"/>
    <trip id="veh91" type="veh_passenger" depart="364.10" departLane="best" departSpeed="max" from="585612367#0" to="585612367#3"/>
    <trip id="veh92" type="veh_passenger" depart="368.11" departLane="best" departSpeed="max" from="26299191#0" to="321397980"/>
    <trip id="veh93" type="veh_passenger" depart="372.11" departLane="best" from="-297768403#0" to="-466857087#1"/>
    <trip id="veh94" type="veh_passenger" depart="376.11" departLane="best" departSpeed="max" from="585612367#0" to="22838314#4"/>
    <trip id="veh95" type="veh_passenger" depart="380.11" departLane="best" departSpeed="max" from="26299191#0" to="321398252"/>
    <trip id="veh96" type="veh_passenger" depart="384.11" departLane="best" from="-220826302#1" to="22838314#4"/>
    <trip id="veh97" type="veh_passenger" depart="388.11" departLane="best" from="22838314#1" to="355391699"/>
    <trip id="veh98" type="veh_passenger" depart="392.11" departLane="best" from="-297768403#0" to="585612365"/>
    <trip id="veh99" type="veh_passenger" depart="396.11" departLane="best" from="26299191#1" to="294202849#1-AddedOnRampEdge"/>
    <trip id="veh100" type="veh_passenger" depart="400.11" departLane="best" from="-355391685#0" to="-27191041#0"/>
    <trip id="veh101" type="veh_passenger" depart="404.12" departLane="best" from="54531638#3" to="-355391696"/>
    <trip id="veh102" type="veh_passenger" depart="408.12" departLane="best" from="26299191#1" to="27191041#1"/>
    <trip id="veh103" type="veh_passenger" depart="412.12" departLane="best" from="164420821#2" to="22838314#4"/>
    <trip id="veh104" type="veh_passenger" depart="416.12" departLane="best" from="22838314#3" to="54531638#3"/>
    <trip id="veh105" type="veh_passenger" depart="420.12" departLane="best" from="-355212036" to="318725571#2"/>
    <trip id="veh106" type="veh_passenger" depart="424.12" departLane="best" from="294202849#1-AddedOnRampEdge" to="-466857089"/>
    <trip id="veh107" type="veh_passenger" depart="428.12" departLane="best" from="-54531638#1" to="321398252"/>
    <trip id="veh108" type="veh_passenger" depart="432.12" departLane="best" from="-22838314#0" to="174471202"/>
    <trip id="veh109" type="veh_passenger" depart="436.12" departLane="best" from="-355391699" to="54531638#3"/>
    <trip id="veh110" type="veh_passenger" depart="440.13" departLane="best" from="54531638#2" to="466857087#0"/>
    <trip id="veh111" type="veh_passenger" depart="444.13" departLane="best" from="132363057#0" to="-297768403#1"/>
    <trip id="veh112" type="veh_passenger" depart="448.13" departLane="best" from="466857087#1" to="318725571#0"/>
    <trip id="veh113" type="veh_passenger" depart="452.13" departLane="best" from="27191041#1" to="585612367#2"/>
    <trip id="veh114" type="veh_passenger" depart="456.13" departLane="best" from="291858158" to="-132363057#0"/>
    <trip id="veh115" type="veh_passenger" depart="460.13" departLane="best" from="466857084" to="-466857089"/>
    <trip id="veh116" type="veh_passenger" depart="464.13" departLane="best" from="294202849#1" to="54531638#3"/>
    <trip id="veh117" type="veh_passenger" depart="468.13" departLane="best" from="-279806915" to="-27191041#0"/>
    <trip id="veh118" type="veh_passenger" depart="472.14" departLane="best" from="-22838314#4" to="22838314#1"/>
    <trip id="veh119" type="veh_passenger" depart="476.14" departLane="best" from="-355391706#1" to="26299191#1"/>
    <trip id="veh120" type="veh_passenger" depart="480.14" departLane="best" from="321397980" to="-355212036"/>
    <trip id="veh121" type="veh_passenger" depart="484.14" departLane="best" from="279806902#1" to="-355391706#0"/>
    <trip id="veh122" type="veh_passenger" depart="488.14" departLane="best" from="466857088" to="-22838314#2"/>
    <trip id="veh123" type="veh_passenger" depart="492.14" departLane="best" from="164420821#2" to="-466857083"/>
    <trip id="veh124" type="veh_passenger" depart="496.14" departLane="best" from="-132363048" to="321398252"/>
    <trip id="veh125" type="veh_passenger" depart="500.14" departLane="best" from="279806915" to="-355391699"/>
    <trip id="veh126" type="veh_passenger" depart="504.14" departLane="best" from="164420821#3" to="-132363057#0"/>
    <trip id="veh127" type="veh_passenger" depart="508.15" departLane="best" from="-22838314#1" to="466857087#1"/>
    <trip id="veh128" type="veh_passenger" depart="512.15" departLane="best" from="585612364#2" to="22838314#0"/>
    <trip id="veh129" type="veh_passenger" depart="516.15" departLane="best" from="466857087#1" to="22838314#4"/>
    <trip id="veh130" type="veh_passenger" depart="520.15" departLane="best" from="-291858158" to="-27191041#1"/>
    <trip id="veh131" type="veh_passenger" depart="524.15" departLane="best" from="-54531638#0" to="466857089"/>
    <trip id="veh132" type="veh_passenger" depart="528.15" departLane="best" from="355391697#1" to="466857083"/>
    <trip id="veh133" type="veh_passenger" depart="532.15" departLane="best" from="585612364#1" to="-355391679#0"/>
    <trip id="veh134" type="veh_passenger" depart="536.15" departLane="best" from="-355391696" to="-22838314#4"/>
    <trip id="veh135" type="veh_passenger" depart="540.15" departLane="best" from="355391689" to="466857087#1"/>
    <trip id="veh136" type="veh_passenger" depart="544.16" departLane="best" from="164420821#1" to="27191041#1"/>
    <trip id="veh137" type="veh_passenger" depart="548.16" departLane="best" from="-297768403#0" to="54531638#2"/>
    <trip id="veh139" type="veh_passenger" depart="556.16" departLane="best" from="-184750308#0" to="321398252"/>
    <trip id="veh140" type="veh_passenger" depart="560.16" departLane="best" from="355391699" to="466857084"/>
    <trip id="veh141" type="veh_passenger" depart="564.16" departLane="best" from="466857083" to="-355391706#0"/>
    <trip id="veh142" type="veh_passenger" depart="568.16" departLane="best" from="355391696" to="-22838314#4"/>
    <trip id="veh143" type="veh_passenger" depart="572.16" departLane="best" from="54531638#2" to="466857083"/>
    <trip id="veh144" type="veh_passenger" depart="576.16" departLane="best" from="-355391680" to="355391684"/>
    <trip id="veh145" type="veh_passenger" depart="580.17" departLane="best" from="355391697#1" to="-355391684"/>
    <trip id="veh147" type="veh_passenger" depart="588.17" departLane="best" from="-54531638#2" to="466857084"/>
    <trip id="veh148" type="veh_passenger" depart="592.17" departLane="best" departSpeed="max" from="585612367#0" to="-466857085#0"/>
    <trip id="veh149" type="veh_passenger" depart="596.17" departLane="best" from="279806915" to="164420820"/>
    <trip id="veh150" type="veh_passenger" depart="600.17" departLane="best" from="585612367#2" to="220826302#2"/>
    <trip id="veh151" type="veh_passenger" depart="604.17" departLane="best" departSpeed="max" from="585612367#0" to="-27191041#0"/>
    <trip id="veh152" type="veh_passenger" depart="608.17" departLane="best" departSpeed="max" from="585612367#0" to="-318725571#2"/>
    <trip id="veh153" type="veh_passenger" depart="612.18" departLane="best" departSpeed="max" from="585612367#0" to="-355391706#0"/>
    <trip id="veh154" type="veh_passenger" depart="616.18" departLane="best" from="-22838314#4" to="164420821#4"/>
    <trip id="veh155" type="veh_passenger" depart="620.18" departLane="best" from="355210814#0" to="-54531638#1"/>
    <trip id="veh156" type="veh_passenger" depart="624.18" departLane="best" from="27191041#0" to="209721150#0"/>
    <trip id="veh157" type="veh_passenger" depart="628.18" departLane="best" from="157712861#1" to="22838314#4"/>
    <trip id="veh158" type="veh_passenger" depart="632.18" departLane="best" from="-132363048" to="54531638#2"/>
    <trip id="veh159" type="veh_passenger" depart="636.18" departLane="best" from="22838314#4" to="321397980"/>
    <trip id="veh160" type="veh_passenger" depart="640.18" departLane="best" from="355210826" to="294202849#1"/>
    <trip id="veh161" type="veh_passenger" depart="644.18" departLane="best" from="-585612366" to="-22838314#0"/>
    <trip id="veh162" type="veh_passenger" depart="648.19" departLane="best" from="294202849#1" to="-54531638#2"/>
    <trip id="veh163" type="veh_passenger" depart="652.19" departLane="best" from="321397980" to="-466857089"/>
    <trip id="veh164" type="veh_passenger" depart="656.19" departLane="best" from="-54531638#0" to="164420821#1"/>
    <trip id="veh165" type="veh_passenger" depart="660.19" departLane="best" from="164420820" to="-466857087#1"/>
    <trip id="veh166" type="veh_passenger" depart="664.19" departLane="best" from="-27191041#1" to="164420821#3"/>
    <trip id="veh167" type="veh_passenger" depart="668.19" departLane="best" departSpeed="max" from="585612367#0" to="294202849#1-AddedOnRampEdge"/>
    <trip id="veh168" type="veh_passenger" depart="672.19" departLane="best" from="585612364#2" to="27191041#1"/>
    <trip id="veh169" type="veh_passenger" depart="676.19" departLane="best" from="-466857089" to="22838314#1"/>
    <trip id="veh170" type="veh_passenger" depart="680.19" departLane="best" from="-132363048" to="-466857085#1"/>
    <trip id="veh171" type="veh_passenger" depart="684.20" departLane="best" from="164420821#3" to="22838314#4"/>
    <trip id="veh172" type="veh_passenger" depart="688.20" departLane="best" from="291858158" to="174471202"/>
    <trip id="veh173" type="veh_passenger" depart="692.20" departLane="best" from="209721150#2" to="466857089"/>
    <trip id="veh174" type="veh_passenger" depart="696.20" departLane="best" from="-22838314#2" to="209721150#1"/>
    <trip id="veh175" type="veh_passenger" depart="700.20" departLane="best" from="279806902#1" to="-54531638#3"/>
    <trip id="veh176" type="veh_passenger" depart="704.20" departLane="best" from="466857085#0" to="321398252"/>
    <trip id="veh177" type="veh_passenger" depart="708.20" departLane="best" from="294202849#1-AddedOnRampEdge" to="-355391684"/>
    <trip id="veh178" type="veh_passenger" depart="712.20" departLane="best" from="-355210826" to="-184750308#0"/>
    <trip id="veh179" type="veh_passenger" depart="716.20" departLane="best" from="-355391689" to="174471202"/>
    <trip id="veh180" type="veh_passenger" depart="720.21" departLane="best" from="466857089" to="-22838314#0"/>
    <trip id="veh181" type="veh_passenger" depart="724.21" departLane="best" from="164420821#2" to="279806902#0"/>
    <trip id="veh182" type="veh_passenger" depart="728.21" departLane="best" from="-355210821" to="297768403#1"/>
    <trip id="veh183" type="veh_passenger" depart="732.21" departLane="best" from="22838314#0" to="-355391696"/>
    <trip id="veh184" type="veh_passenger" depart="736.21" departLane="best" from="291858158" to="-132363057#0"/>
    <trip id="veh185" type="veh_passenger" depart="740.21" departLane="best" from="355391674" to="321398252"/>
    <trip id="veh186" type="veh_passenger" depart="744.21" departLane="best" from="-22838314#4" to="164420821#3"/>
    <trip id="veh187" type="veh_passenger" depart="748.21" departLane="best" from="-318725571#1" to="585612365"/>
    <trip id="veh188" type="veh_passenger" depart="752.22" departLane="best" from="22838314#2" to="-220826299"/>
    <trip id="veh189" type="veh_passenger" depart="756.22" departLane="best" from="184750308#0" to="355391674"/>
    <trip id="veh190" type="veh_passenger" depart="760.22" departLane="best" from="294202849#1" to="585612367#2"/>
    <trip id="veh191" type="veh_passenger" depart="764.22" departLane="best" from="26299191#1" to="585612364#1"/>
    <trip id="veh192" type="veh_passenger" depart="768.22" departLane="best" from="54531638#3" to="27191041#0"/>
    <trip id="veh193" type="veh_passenger" depart="772.22" departLane="best" from="321397980" to="184750308#1"/>
    <trip id="veh194" type="veh_passenger" depart="776.22" departLane="best" from="466857087#0" to="22838314#1"/>
    <trip id="veh195" type="veh_passenger" depart="780.22" departLane="best" from="585612364#1" to="321398252"/>
    <trip id="veh196" type="veh_passenger" depart="784.22" departLane="best" from="-355391696" to="279806902#1"/>
    <trip id="veh197" type="veh_passenger" depart="788.23" departLane="best" from="355391684" to="209721150#2"/>
    <trip id="veh198" type="veh_passenger" depart="792.23" departLane="best" from="279806902#0" to="-466857083"/>
    <trip id="veh199" type="veh_passenger" depart="796.23" departLane="best" from="-22838314#1" to="-466857085#1"/>
    <trip id="veh200" type="veh_passenger" depart="800.23" departLane="best" from="-355391706#1" to="-54531638#1"/>
    <trip id="veh201" type="veh_passenger" depart="804.23" departLane="best" from="22838314#4" to="-279806915"/>
    <trip id="veh202" type="veh_passenger" depart="808.23" departLane="best" from="-355391684" to="297768403#1"/>
    <trip id="veh203" type="veh_passenger" depart="812.23" departLane="best" from="318725571#1" to="-22838314#0"/>
    <trip id="veh204" type="veh_passenger" depart="816.23" departLane="best" from="164420821#2" to="54531638#0"/>
    <trip id="veh205" type="veh_passenger" depart="820.23" departLane="best" departSpeed="max" from="26299191#0" to="297768403#1"/>
    <trip id="veh206" type="veh_passenger" depart="824.24" departLane="best" from="54531638#0" to="321398252"/>
    <trip id="veh207" type="veh_passenger" depart="828.24" departLane="best" from="-585612364#1" to="321398252"/>
    <trip id="veh208" type="veh_passenger" depart="832.24" departLane="best" from="54531638#0" to="585612364#2"/>
    <trip id="veh209" type="veh_passenger" depart="836.24" departLane="best" from="164420821#2" to="321398252"/>
    <trip id="veh210" type="veh_passenger" depart="840.24" departLane="best" departSpeed="max" from="26299191#0" to="26299191#1"/>
    <trip id="veh211" type="veh_passenger" depart="844.24" departLane="best" from="164420821#4" to="-184750308#0"/>
    <trip id="veh212" type="veh_passenger" depart="848.24" departLane="best" from="-54531638#3" to="294202849#1-AddedOnRampEdge"/>
    <trip id="veh213" type="veh_passenger" depart="852.24" departLane="best" from="164420821#1" to="-297768403#2"/>
    <trip id="veh214" type="veh_passenger" depart="856.24" departLane="best" from="209721150#0" to="-27191041#1"/>
    <trip id="veh215" type="veh_passenger" depart="860.25" departLane="best" from="279806902#0" to="-184750308#0"/>
    <trip id="veh216" type="veh_passenger" depart="864.25" departLane="best" from="164420819#0" to="22838314#2"/>
    <trip id="veh217" type="veh_passenger" depart="868.25" departLane="best" from="-184750308#0" to="279806915"/>
    <trip id="veh218" type="veh_passenger" depart="872.25" departLane="best" from="-279806915" to="174471202"/>
    <trip id="veh219" type="veh_passenger" depart="876.25" departLane="best" from="-220826299" to="157712861#0"/>
    <trip id="veh220" type="veh_passenger" depart="880.25" departLane="best" from="-355391674" to="-54531638#2"/>
    <trip id="veh221" type="veh_passenger" depart="884.25" departLane="best" from="355391679#1" to="157712861#0"/>
    <trip id="veh222" type="veh_passenger" depart="888.25" departLane="best" from="355391674" to="355391689"/>
    <trip id="veh223" type="veh_passenger" depart="892.26" departLane="best" from="-355391697#0" to="-22838314#1"/>
    <trip id="veh224" type="veh_passenger" depart="896.26" departLane="best" from="-157712861#0" to="22838314#0"/>
    <trip id="veh225" type="veh_passenger" depart="900.26" departLane="best" from="585612367#3" to="-585612364#1"/>
    <trip id="veh226" type="veh_passenger" depart="904.26" departLane="best" from="279806937" to="355210814#1"/>
    <trip id="veh227" type="veh_passenger" depart="908.26" departLane="best" from="291858158" to="321398252"/>
    <trip id="veh228" type="veh_passenger" depart="912.26" departLane="best" departSpeed="max" from="585612367#0" to="-355210826"/>
    <trip id="veh229" type="veh_passenger" depart="916.26" departLane="best" from="-157712861#1" to="-297768403#0"/>
    <trip id="veh230" type="veh_passenger" depart="920.26" departLane="best" from="-27191041#1" to="294202849#1"/>
    <trip id="veh231" type="veh_passenger" depart="924.26" departLane="best" departSpeed="max" from="26299191#0" to="-355391679#1"/>
    <trip id="veh232" type="veh_passenger" depart="928.27" departLane="best" from="297768403#2" to="321398252"/>
    <trip id="veh233" type="veh_passenger" depart="932.27" departLane="best" from="355212036" to="-27191041#0"/>
    <trip id="veh234" type="veh_passenger" depart="936.27" departLane="best" from="466857085#0" to="585612365"/>
    <trip id="veh235" type="veh_passenger" depart="940.27" departLane="best" from="-22838314#4" to="-184750308#0"/>
    <trip id="veh236" type="veh_passenger" depart="944.27" departLane="best" from="-54531638#0" to="294202849#1-AddedOnRampEdge"/>
    <trip id="veh237" type="veh_passenger" depart="948.27" departLane="best" departSpeed="max" from="585612367#0" to="164420820"/>
    <trip id="veh238" type="veh_passenger" depart="952.27" departLane="best" from="297768403#1" to="279806902#0"/>
    <trip id="veh239" type="veh_passenger" depart="956.27" departLane="best" from="-22838314#3" to="321398252"/>
    <trip id="veh240" type="veh_passenger" depart="960.27" departLane="best" from="466857089" to="26299191#1"/>
    <trip id="veh241" type="veh_passenger" depart="964.28" departLane="best" from="-27191041#0" to="585612367#2"/>
    <trip id="veh242" type="veh_passenger" depart="968.28" departLane="best" from="355391689" to="-585612364#1"/>
    <trip id="veh243" type="veh_passenger" depart="972.28" departLane="best" from="164420821#3" to="132363057#0"/>
    <trip id="veh244" type="veh_passenger" depart="976.28" departLane="best" from="22838314#1" to="-54531638#3"/>
    <trip id="veh245" type="veh_passenger" depart="980.28" departLane="best" from="466857089" to="355391685#0"/>
    <trip id="veh246" type="veh_passenger" depart="984.28" departLane="best" from="-22838314#4" to="585612365"/>
    <trip id="veh247" type="veh_passenger" depart="988.28" departLane="best" from="279806915" to="355391685#1"/>
    <trip id="veh248" type="veh_passenger" depart="992.28" departLane="best" from="318725571#1" to="164420821#4"/>
    <trip id="veh249" type="veh_passenger" depart="996.28" departLane="best" from="355210814#1" to="585612365"/>
    <trip id="veh250" type="veh_passenger" depart="1000.29" departLane="best" from="22838314#4" to="174471202"/>
    <trip id="veh251" type="veh_passenger" depart="1004.29" departLane="best" from="164420821#4" to="321398252"/>
    <trip id="veh252" type="veh_passenger" depart="1008.29" departLane="best" from="-355391706#0" to="355391699"/>
    <trip id="veh253" type="veh_passenger" depart="1012.29" departLane="best" from="466857087#0" to="-22838314#2"/>
    <trip id="veh254" type="veh_passenger" depart="1016.29" departLane="best" from="54531638#2" to="-355391689"/>