<?xml version="1.0" encoding="UTF-8"?>

<!-- generated on Wed Jan 27 13:08:16 2021 by Eclipse SUMO netedit Version 1.7.0
<configuration xmlns:xsi="http://www.w3.org/2001/XMLSchema-instance" xsi:noNamespaceSchemaLocation="http://sumo.dlr.de/xsd/netconvertConfiguration.xsd">

    <input>
        <sumo-net-file value="osm.net.xml"/>
    </input>

    <output>
        <output-file value="osm.net.xml"/>
        <output.street-names value="true"/>
    </output>

    <processing>
        <geometry.min-radius.fix.railways value="false"/>
        <geometry.max-grade.fix value="false"/>
        <offset.disable-normalization value="true"/>
        <lefthand value="true"/>
    </processing>

    <junctions>
        <no-turnarounds value="true"/>
        <junctions.corner-detail value="5"/>
        <junctions.limit-turn-speed value="5.5"/>
        <rectangular-lane-cut value="false"/>
    </junctions>

    <pedestrian>
        <walkingareas value="false"/>
    </pedestrian>

    <netedit>
        <additional-files value="/home/shashwath/Sumo/Lab%20Test/2nd_sessionals/2021-01-27-12-34-30/parking.add.xml"/>
        <route-files value="/home/shashwath/Sumo/mini_proj/mod/osm_mod/flow.rou.xml"/>
    </netedit>

    <report>
        <aggregate-warnings value="5"/>
    </report>

</configuration>
-->

<net version="1.6" junctionCornerDetail="5" lefthand="true" limitTurnSpeed="5.50" xmlns:xsi="http://www.w3.org/2001/XMLSchema-instance" xsi:noNamespaceSchemaLocation="http://sumo.dlr.de/xsd/net_file.xsd">

    <location netOffset="-483523.29,-1422698.62" convBoundary="0.00,0.00,7611.49,6791.30" origBoundary="74.848134,12.869413,74.918271,12.930848" projParameter="+proj=utm +zone=43 +ellps=WGS84 +datum=WGS84 +units=m +no_defs"/>

    <type id="highway.bridleway" priority="1" numLanes="1" speed="2.78" allow="pedestrian" oneway="1" width="2.00"/>
    <type id="highway.bus_guideway" priority="1" numLanes="1" speed="27.78" allow="bus" oneway="1"/>
    <type id="highway.cycleway" priority="1" numLanes="1" speed="8.33" allow="bicycle" oneway="0" width="1.00"/>
    <type id="highway.footway" priority="1" numLanes="1" speed="2.78" allow="pedestrian" oneway="1" width="2.00"/>
    <type id="highway.ford" priority="1" numLanes="1" speed="2.78" allow="army" oneway="0"/>
    <type id="highway.living_street" priority="2" numLanes="1" speed="2.78" disallow="tram rail_urban rail rail_electric rail_fast ship" oneway="0"/>
    <type id="highway.motorway" priority="14" numLanes="2" speed="39.44" allow="private emergency authority army vip passenger hov taxi bus coach delivery truck trailer motorcycle evehicle custom1 custom2" oneway="1"/>
    <type id="highway.motorway_link" priority="9" numLanes="1" speed="22.22" allow="private emergency authority army vip passenger hov taxi bus coach delivery truck trailer motorcycle evehicle custom1 custom2" oneway="1"/>
    <type id="highway.path" priority="1" numLanes="1" speed="2.78" allow="pedestrian bicycle" oneway="1" width="2.00"/>
    <type id="highway.pedestrian" priority="1" numLanes="1" speed="2.78" allow="pedestrian" oneway="1" width="2.00"/>
    <type id="highway.primary" priority="12" numLanes="2" speed="27.78" disallow="tram rail_urban rail rail_electric rail_fast ship" oneway="0"/>
    <type id="highway.primary_link" priority="7" numLanes="1" speed="22.22" disallow="tram rail_urban rail rail_electric rail_fast ship" oneway="0"/>
    <type id="highway.raceway" priority="15" numLanes="2" speed="83.33" allow="vip" oneway="0"/>
    <type id="highway.residential" priority="3" numLanes="1" speed="13.89" disallow="tram rail_urban rail rail_electric rail_fast ship" oneway="0"/>
    <type id="highway.secondary" priority="11" numLanes="1" speed="27.78" disallow="tram rail_urban rail rail_electric rail_fast ship" oneway="0"/>
    <type id="highway.secondary_link" priority="6" numLanes="1" speed="22.22" disallow="tram rail_urban rail rail_electric rail_fast ship" oneway="0"/>
    <type id="highway.service" priority="1" numLanes="1" speed="5.56" allow="pedestrian delivery bicycle" oneway="0"/>
    <type id="highway.stairs" priority="1" numLanes="1" speed="1.39" allow="pedestrian" oneway="1" width="2.00"/>
    <type id="highway.step" priority="1" numLanes="1" speed="1.39" allow="pedestrian" oneway="1" width="2.00"/>
    <type id="highway.steps" priority="1" numLanes="1" speed="1.39" allow="pedestrian" oneway="1" width="2.00"/>
    <type id="highway.tertiary" priority="10" numLanes="1" speed="22.22" disallow="tram rail_urban rail rail_electric rail_fast ship" oneway="0"/>
    <type id="highway.tertiary_link" priority="5" numLanes="1" speed="22.22" disallow="tram rail_urban rail rail_electric rail_fast ship" oneway="0"/>
    <type id="highway.track" priority="1" numLanes="1" speed="5.56" allow="pedestrian motorcycle moped bicycle" oneway="0"/>
    <type id="highway.trunk" priority="13" numLanes="2" speed="27.78" disallow="pedestrian bicycle tram rail_urban rail rail_electric rail_fast ship" oneway="0"/>
    <type id="highway.trunk_link" priority="8" numLanes="1" speed="22.22" disallow="pedestrian bicycle tram rail_urban rail rail_electric rail_fast ship" oneway="0"/>
    <type id="highway.unclassified" priority="4" numLanes="1" speed="13.89" disallow="tram rail_urban rail rail_electric rail_fast ship" oneway="0"/>
    <type id="highway.unsurfaced" priority="1" numLanes="1" speed="8.33" disallow="tram rail_urban rail rail_electric rail_fast ship" oneway="0"/>
    <type id="railway.highspeed" priority="21" numLanes="1" speed="69.44" allow="rail_fast" oneway="1"/>
    <type id="railway.light_rail" priority="19" numLanes="1" speed="27.78" allow="rail_urban" oneway="1"/>
    <type id="railway.preserved" priority="16" numLanes="1" speed="27.78" allow="rail" oneway="1"/>
    <type id="railway.rail" priority="20" numLanes="1" speed="44.44" allow="rail" oneway="1"/>
    <type id="railway.subway" priority="18" numLanes="1" speed="27.78" allow="rail_urban" oneway="1"/>
    <type id="railway.tram" priority="17" numLanes="1" speed="13.89" allow="tram" oneway="1"/>

    <edge id=":1319901329_0" function="internal">
        <lane id=":1319901329_0_0" index="0" disallow="tram rail_urban rail rail_electric rail_fast ship" speed="3.65" length="4.67" shape="936.45,191.05 935.01,191.11 934.25,191.59 934.18,192.48 934.79,193.79"/>
    </edge>
    <edge id=":1456142367_0" function="internal">
        <lane id=":1456142367_0_0" index="0" disallow="tram rail_urban rail rail_electric rail_fast ship" speed="3.65" length="4.67" shape="1469.63,1798.01 1471.01,1797.62 1471.63,1796.97 1471.50,1796.09 1470.59,1794.97"/>
    </edge>
    <edge id=":1456142414_0" function="internal">
        <lane id=":1456142414_0_0" index="0" disallow="tram rail_urban rail rail_electric rail_fast ship" speed="13.89" length="14.08" shape="1272.47,1529.87 1258.53,1531.79"/>
    </edge>
    <edge id=":1456142414_1" function="internal">
        <lane id=":1456142414_1_0" index="0" disallow="tram rail_urban rail rail_electric rail_fast ship" speed="7.97" length="5.59" shape="1272.47,1529.87 1268.75,1531.07 1267.48,1532.17"/>
    </edge>
    <edge id=":1456142414_2" function="internal">
        <lane id=":1456142414_2_0" index="0" disallow="tram rail_urban rail rail_electric rail_fast ship" speed="3.65" length="2.34" shape="1272.47,1529.87 1271.43,1530.86 1271.17,1531.71"/>
    </edge>
    <edge id=":1456142414_9" function="internal">
        <lane id=":1456142414_9_0" index="0" disallow="tram rail_urban rail rail_electric rail_fast ship" speed="7.97" length="8.66" shape="1267.48,1532.17 1266.32,1533.17 1265.20,1536.18 1265.37,1540.09"/>
    </edge>
    <edge id=":1456142414_10" function="internal">
        <lane id=":1456142414_10_0" index="0" disallow="tram rail_urban rail rail_electric rail_fast ship" speed="3.65" length="2.34" shape="1271.17,1531.71 1271.70,1532.43 1273.02,1533.02"/>
    </edge>
    <edge id=":1456142414_3" function="internal">
        <lane id=":1456142414_3_0" index="0" disallow="tram rail_urban rail rail_electric rail_fast ship" speed="6.47" length="9.03" shape="1268.51,1539.50 1268.40,1537.02 1269.12,1535.12 1270.66,1533.78 1273.02,1533.02"/>
    </edge>
    <edge id=":1456142414_4" function="internal">
        <lane id=":1456142414_4_0" index="0" disallow="tram rail_urban rail rail_electric rail_fast ship" speed="8.24" length="14.13" shape="1268.51,1539.50 1267.28,1535.80 1265.21,1533.29 1262.29,1531.95 1258.53,1531.79"/>
    </edge>
    <edge id=":1456142414_5" function="internal">
        <lane id=":1456142414_5_0" index="0" disallow="tram rail_urban rail rail_electric rail_fast ship" speed="3.65" length="4.67" shape="1268.51,1539.50 1267.50,1538.47 1266.64,1538.22 1265.93,1538.76 1265.37,1540.09"/>
    </edge>
    <edge id=":1456142414_6" function="internal">
        <lane id=":1456142414_6_0" index="0" disallow="tram rail_urban rail rail_electric rail_fast ship" speed="6.78" length="9.28" shape="1258.86,1534.97 1261.30,1535.08 1263.20,1535.97 1264.56,1537.64 1265.37,1540.09"/>
    </edge>
    <edge id=":1456142414_7" function="internal">
        <lane id=":1456142414_7_0" index="0" disallow="tram rail_urban rail rail_electric rail_fast ship" speed="13.89" length="14.29" shape="1258.86,1534.97 1273.02,1533.02"/>
    </edge>
    <edge id=":1456142414_8" function="internal">
        <lane id=":1456142414_8_0" index="0" disallow="tram rail_urban rail rail_electric rail_fast ship" speed="3.65" length="2.34" shape="1258.86,1534.97 1259.97,1534.05 1260.28,1533.22"/>
    </edge>
    <edge id=":1456142414_11" function="internal">
        <lane id=":1456142414_11_0" index="0" disallow="tram rail_urban rail rail_electric rail_fast ship" speed="3.65" length="2.34" shape="1260.28,1533.22 1259.80,1532.46 1258.53,1531.79"/>
    </edge>
    <edge id=":1456142501_0" function="internal">
        <lane id=":1456142501_0_0" index="0" disallow="tram rail_urban rail rail_electric rail_fast ship" speed="10.08" length="11.89" shape="1061.93,1154.77 1059.17,1157.20 1056.53,1158.83 1053.99,1159.68 1051.56,1159.72"/>
    </edge>
    <edge id=":1456142501_1" function="internal">
        <lane id=":1456142501_1_0" index="0" disallow="tram rail_urban rail rail_electric rail_fast ship" speed="7.49" length="15.95" shape="1061.93,1154.77 1059.13,1158.50 1058.60,1161.78 1060.35,1164.60 1064.36,1166.96"/>
    </edge>
    <edge id=":1456142501_2" function="internal">
        <lane id=":1456142501_2_0" index="0" disallow="tram rail_urban rail rail_electric rail_fast ship" speed="3.65" length="4.67" shape="1061.93,1154.77 1061.65,1156.19 1061.93,1157.04 1062.78,1157.32 1064.20,1157.03"/>
    </edge>
    <edge id=":1456142501_3" function="internal">
        <lane id=":1456142501_3_0" index="0" disallow="tram rail_urban rail rail_electric rail_fast ship" speed="5.83" length="9.13" shape="1065.59,1164.01 1063.29,1162.65 1062.29,1161.04 1062.60,1159.16 1064.20,1157.03"/>
    </edge>
    <edge id=":1456142501_4" function="internal">
        <lane id=":1456142501_4_0" index="0" disallow="tram rail_urban rail rail_electric rail_fast ship" speed="27.78" length="14.71" shape="1065.59,1164.01 1062.15,1162.63 1058.70,1161.42 1055.19,1160.43 1051.56,1159.72"/>
    </edge>
    <edge id=":1456142501_5" function="internal">
        <lane id=":1456142501_5_0" index="0" disallow="tram rail_urban rail rail_electric rail_fast ship" speed="3.65" length="2.34" shape="1065.59,1164.01 1064.18,1164.28 1063.50,1164.87"/>
    </edge>
    <edge id=":1456142501_9" function="internal">
        <lane id=":1456142501_9_0" index="0" disallow="tram rail_urban rail rail_electric rail_fast ship" speed="3.65" length="2.34" shape="1063.50,1164.87 1063.56,1165.76 1064.36,1166.96"/>
    </edge>
    <edge id=":1456142501_6" function="internal">
        <lane id=":1456142501_6_0" index="0" disallow="tram rail_urban rail rail_electric rail_fast ship" speed="27.78" length="13.92" shape="1051.09,1162.89 1054.61,1163.56 1057.85,1164.48 1061.04,1165.62 1064.36,1166.96"/>
    </edge>
    <edge id=":1456142501_7" function="internal">
        <lane id=":1456142501_7_0" index="0" disallow="tram rail_urban rail rail_electric rail_fast ship" speed="11.23" length="5.05" shape="1051.09,1162.89 1054.30,1162.87 1056.06,1162.34"/>
    </edge>
    <edge id=":1456142501_8" function="internal">
        <lane id=":1456142501_8_0" index="0" disallow="tram rail_urban rail rail_electric rail_fast ship" speed="3.65" length="2.34" shape="1051.09,1162.89 1052.40,1162.27 1052.91,1161.54"/>
    </edge>
    <edge id=":1456142501_10" function="internal">
        <lane id=":1456142501_10_0" index="0" disallow="tram rail_urban rail rail_electric rail_fast ship" speed="11.23" length="9.82" shape="1056.06,1162.34 1057.55,1161.89 1060.85,1159.94 1064.20,1157.03"/>
    </edge>
    <edge id=":1456142501_11" function="internal">
        <lane id=":1456142501_11_0" index="0" disallow="tram rail_urban rail rail_electric rail_fast ship" speed="3.65" length="2.34" shape="1052.91,1161.54 1052.63,1160.69 1051.56,1159.72"/>
    </edge>
    <edge id=":1457440307_0" function="internal">
        <lane id=":1457440307_0_0" index="0" disallow="tram rail_urban rail rail_electric rail_fast ship" speed="3.65" length="4.67" shape="0.84,808.93 -0.60,808.98 -1.36,809.45 -1.44,810.34 -0.84,811.65"/>
    </edge>
    <edge id=":1699680570_0" function="internal">
        <lane id=":1699680570_0_0" index="0" disallow="tram rail_urban rail rail_electric rail_fast ship" speed="27.78" length="14.40" shape="1162.29,1204.79 1149.19,1198.80"/>
    </edge>
    <edge id=":1699680570_1" function="internal">
        <lane id=":1699680570_1_0" index="0" disallow="tram rail_urban rail rail_electric rail_fast ship" speed="7.93" length="5.94" shape="1162.29,1204.79 1158.50,1203.68 1156.53,1203.92"/>
    </edge>
    <edge id=":1699680570_2" function="internal">
        <lane id=":1699680570_2_0" index="0" disallow="tram rail_urban rail rail_electric rail_fast ship" speed="3.65" length="2.34" shape="1162.29,1204.79 1160.86,1205.02 1160.17,1205.58"/>
    </edge>
    <edge id=":1699680570_9" function="internal">
        <lane id=":1699680570_9_0" index="0" disallow="tram rail_urban rail rail_electric rail_fast ship" speed="7.93" length="8.40" shape="1156.53,1203.92 1155.30,1204.07 1152.70,1205.96 1150.69,1209.36"/>
    </edge>
    <edge id=":1699680570_10" function="internal">
        <lane id=":1699680570_10_0" index="0" disallow="tram rail_urban rail rail_electric rail_fast ship" speed="3.65" length="2.34" shape="1160.17,1205.58 1160.20,1206.48 1160.95,1207.70"/>
    </edge>
    <edge id=":1699680570_3" function="internal">
        <lane id=":1699680570_3_0" index="0" disallow="tram rail_urban rail rail_electric rail_fast ship" speed="6.43" length="9.03" shape="1153.65,1210.58 1154.91,1208.44 1156.55,1207.24 1158.57,1207.00 1160.95,1207.70"/>
    </edge>
    <edge id=":1699680570_4" function="internal">
        <lane id=":1699680570_4_0" index="0" disallow="tram rail_urban rail rail_electric rail_fast ship" speed="8.13" length="14.25" shape="1153.65,1210.58 1154.64,1206.77 1154.22,1203.54 1152.41,1200.88 1149.19,1198.80"/>
    </edge>
    <edge id=":1699680570_5" function="internal">
        <lane id=":1699680570_5_0" index="0" disallow="tram rail_urban rail rail_electric rail_fast ship" speed="3.65" length="4.67" shape="1153.65,1210.58 1153.37,1209.17 1152.78,1208.49 1151.89,1208.56 1150.69,1209.36"/>
    </edge>
    <edge id=":1699680570_6" function="internal">
        <lane id=":1699680570_6_0" index="0" disallow="tram rail_urban rail rail_electric rail_fast ship" speed="6.66" length="9.23" shape="1147.86,1201.71 1149.92,1203.05 1151.08,1204.77 1151.34,1206.88 1150.69,1209.36"/>
    </edge>
    <edge id=":1699680570_7" function="internal">
        <lane id=":1699680570_7_0" index="0" disallow="tram rail_urban rail rail_electric rail_fast ship" speed="27.78" length="14.40" shape="1147.86,1201.71 1160.95,1207.70"/>
    </edge>
    <edge id=":1699680570_8" function="internal">
        <lane id=":1699680570_8_0" index="0" disallow="tram rail_urban rail rail_electric rail_fast ship" speed="3.65" length="2.34" shape="1147.86,1201.71 1149.28,1201.48 1149.98,1200.92"/>
    </edge>
    <edge id=":1699680570_11" function="internal">
        <lane id=":1699680570_11_0" index="0" disallow="tram rail_urban rail rail_electric rail_fast ship" speed="3.65" length="2.34" shape="1149.98,1200.92 1149.95,1200.03 1149.19,1198.80"/>
    </edge>
    <edge id=":1699680584_0" function="internal">
        <lane id=":1699680584_0_0" index="0" disallow="tram rail_urban rail rail_electric rail_fast ship" speed="7.82" length="10.48" shape="1072.45,1428.50 1071.28,1430.63 1069.47,1432.12 1067.01,1432.95 1063.91,1433.15"/>
    </edge>
    <edge id=":1699680584_1" function="internal">
        <lane id=":1699680584_1_0" index="0" disallow="tram rail_urban rail rail_electric rail_fast ship" speed="13.89" length="14.52" shape="1072.45,1428.50 1068.19,1442.38"/>
    </edge>
    <edge id=":1699680584_2" function="internal">
        <lane id=":1699680584_2_0" index="0" disallow="tram rail_urban rail rail_electric rail_fast ship" speed="3.65" length="2.34" shape="1072.45,1428.50 1072.81,1429.89 1073.44,1430.53"/>
    </edge>
    <edge id=":1699680584_9" function="internal">
        <lane id=":1699680584_9_0" index="0" disallow="tram rail_urban rail rail_electric rail_fast ship" speed="3.65" length="2.34" shape="1073.44,1430.53 1074.33,1430.41 1075.47,1429.54"/>
    </edge>
    <edge id=":1699680584_3" function="internal">
        <lane id=":1699680584_3_0" index="0" disallow="tram rail_urban rail rail_electric rail_fast ship" speed="13.89" length="14.33" shape="1071.28,1443.23 1075.47,1429.54"/>
    </edge>
    <edge id=":1699680584_4" function="internal">
        <lane id=":1699680584_4_0" index="0" disallow="tram rail_urban rail rail_electric rail_fast ship" speed="7.65" length="5.81" shape="1071.28,1443.23 1071.83,1438.96 1071.35,1437.54"/>
    </edge>
    <edge id=":1699680584_5" function="internal">
        <lane id=":1699680584_5_0" index="0" disallow="tram rail_urban rail rail_electric rail_fast ship" speed="3.65" length="2.34" shape="1071.28,1443.23 1070.83,1441.86 1070.16,1441.26"/>
    </edge>
    <edge id=":1699680584_10" function="internal">
        <lane id=":1699680584_10_0" index="0" disallow="tram rail_urban rail rail_electric rail_fast ship" speed="7.65" length="9.36" shape="1071.35,1437.54 1070.78,1435.86 1068.14,1433.92 1063.91,1433.15"/>
    </edge>
    <edge id=":1699680584_11" function="internal">
        <lane id=":1699680584_11_0" index="0" disallow="tram rail_urban rail rail_electric rail_fast ship" speed="3.65" length="2.34" shape="1070.16,1441.26 1069.28,1441.44 1068.19,1442.38"/>
    </edge>
    <edge id=":1699680584_6" function="internal">
        <lane id=":1699680584_6_0" index="0" disallow="tram rail_urban rail rail_electric rail_fast ship" speed="6.06" length="9.07" shape="1063.79,1436.35 1066.32,1436.81 1067.90,1437.97 1068.52,1439.82 1068.19,1442.38"/>
    </edge>
    <edge id=":1699680584_7" function="internal">
        <lane id=":1699680584_7_0" index="0" disallow="tram rail_urban rail rail_electric rail_fast ship" speed="9.13" length="14.60" shape="1063.79,1436.35 1067.98,1436.05 1071.32,1434.82 1073.82,1432.65 1075.47,1429.54"/>
    </edge>
    <edge id=":1699680584_8" function="internal">
        <lane id=":1699680584_8_0" index="0" disallow="tram rail_urban rail rail_electric rail_fast ship" speed="3.65" length="4.67" shape="1063.79,1436.35 1065.01,1435.59 1065.44,1434.81 1065.07,1433.99 1063.91,1433.15"/>
    </edge>
    <edge id=":1699680598_0" function="internal">
        <lane id=":1699680598_0_0" index="0" disallow="tram rail_urban rail rail_electric rail_fast ship" speed="3.65" length="4.67" shape="957.93,1425.31 956.67,1426.02 956.21,1426.79 956.55,1427.62 957.69,1428.51"/>
    </edge>
    <edge id=":1760578298_0" function="internal">
        <lane id=":1760578298_0_0" index="0" disallow="pedestrian bicycle tram rail_urban rail rail_electric rail_fast ship" speed="10.78" length="17.56" shape="1680.06,1583.59 1676.41,1587.06 1674.12,1590.85 1673.18,1594.98 1673.61,1599.43"/>
        <lane id=":1760578298_0_1" index="1" disallow="pedestrian bicycle tram rail_urban rail rail_electric rail_fast ship" speed="10.43" length="17.56" shape="1683.58,1584.94 1679.94,1588.30 1677.62,1591.84 1676.61,1595.56 1676.91,1599.46"/>
    </edge>
    <edge id=":1760578298_2" function="internal">
        <lane id=":1760578298_2_0" index="0" disallow="pedestrian bicycle tram rail_urban rail rail_electric rail_fast ship" speed="25.00" length="20.31" shape="1672.88,1579.21 1673.12,1583.06 1672.78,1587.50 1672.67,1592.85 1673.61,1599.43"/>
    </edge>
    <edge id=":1851579891_0" function="internal">
        <lane id=":1851579891_0_0" index="0" disallow="pedestrian bicycle tram rail_urban rail rail_electric rail_fast ship" speed="18.83" length="9.21" shape="2743.63,1513.95 2741.22,1513.14 2739.63,1512.42 2738.18,1511.43 2736.24,1509.79"/>
        <lane id=":1851579891_0_1" index="1" disallow="pedestrian bicycle tram rail_urban rail rail_electric rail_fast ship" speed="20.17" length="9.21" shape="2742.64,1516.99 2739.88,1516.06 2738.04,1515.23 2736.38,1514.09 2734.15,1512.22"/>
    </edge>
    <edge id=":1851579891_2" function="internal">
        <lane id=":1851579891_2_0" index="0" disallow="pedestrian bicycle tram rail_urban rail rail_electric rail_fast ship" speed="3.65" length="2.34" shape="2742.64,1516.99 2741.25,1517.38 2740.62,1518.02"/>
    </edge>
    <edge id=":1851579891_6" function="internal">
        <lane id=":1851579891_6_0" index="0" disallow="pedestrian bicycle tram rail_urban rail rail_electric rail_fast ship" speed="3.65" length="2.34" shape="2740.62,1518.02 2740.75,1518.90 2741.65,1520.04"/>
    </edge>
    <edge id=":1851579891_3" function="internal">
        <lane id=":1851579891_3_0" index="0" disallow="pedestrian bicycle tram rail_urban rail rail_electric rail_fast ship" speed="25.00" length="9.77" shape="2732.46,1517.81 2735.15,1518.50 2736.65,1519.95 2738.11,1521.65 2740.66,1523.08"/>
        <lane id=":1851579891_3_1" index="1" disallow="pedestrian bicycle tram rail_urban rail rail_electric rail_fast ship" speed="25.00" length="9.77" shape="2732.46,1517.81 2735.26,1518.03 2737.14,1518.45 2738.98,1519.10 2741.65,1520.04"/>
    </edge>
    <edge id=":1851579891_5" function="internal">
        <lane id=":1851579891_5_0" index="0" disallow="pedestrian bicycle tram rail_urban rail rail_electric rail_fast ship" speed="5.53" length="5.05" shape="2732.46,1517.81 2735.79,1517.59 2737.18,1516.59"/>
    </edge>
    <edge id=":1851579891_7" function="internal">
        <lane id=":1851579891_7_0" index="0" disallow="pedestrian bicycle tram rail_urban rail rail_electric rail_fast ship" speed="5.53" length="5.45" shape="2737.18,1516.59 2736.64,1514.80 2734.15,1512.22"/>
    </edge>
    <edge id=":2289145107_0" function="internal">
        <lane id=":2289145107_0_0" index="0" disallow="tram rail_urban rail rail_electric rail_fast ship" speed="3.65" length="4.67" shape="2953.65,3011.80 2955.09,3011.82 2955.88,3011.39 2956.00,3010.50 2955.47,3009.16"/>
    </edge>
    <edge id=":2299126322_0" function="internal">
        <lane id=":2299126322_0_0" index="0" disallow="tram rail_urban rail rail_electric rail_fast ship" speed="27.78" length="25.32" shape="1647.15,1439.58 1639.23,1415.53"/>
        <lane id=":2299126322_0_1" index="1" disallow="tram rail_urban rail rail_electric rail_fast ship" speed="27.78" length="25.32" shape="1644.11,1440.58 1636.19,1416.53"/>
    </edge>
    <edge id=":2299126322_2" function="internal">
        <lane id=":2299126322_2_0" index="0" disallow="tram rail_urban rail rail_electric rail_fast ship" speed="6.75" length="4.39" shape="1644.11,1440.58 1641.31,1437.20"/>
    </edge>
    <edge id=":2299126322_3" function="internal">
        <lane id=":2299126322_3_0" index="0" disallow="tram rail_urban rail rail_electric rail_fast ship" speed="3.65" length="2.34" shape="1644.11,1440.58 1642.98,1439.69 1642.09,1439.56"/>
    </edge>
    <edge id=":2299126322_11" function="internal">
        <lane id=":2299126322_11_0" index="0" disallow="tram rail_urban rail rail_electric rail_fast ship" speed="6.75" length="14.78" shape="1641.31,1437.20 1640.97,1436.77 1636.39,1436.10 1632.26,1438.23 1630.47,1442.86"/>
    </edge>
    <edge id=":2299126322_12" function="internal">
        <lane id=":2299126322_12_0" index="0" disallow="tram rail_urban rail rail_electric rail_fast ship" speed="3.65" length="2.34" shape="1642.09,1439.56 1641.46,1440.19 1641.07,1441.58"/>
    </edge>
    <edge id=":2299126322_4" function="internal">
        <lane id=":2299126322_4_0" index="0" disallow="tram rail_urban rail rail_electric rail_fast ship" speed="5.98" length="14.62" shape="1633.67,1443.14 1633.94,1437.91 1634.75,1436.08 1636.12,1437.63 1638.03,1442.58"/>
    </edge>
    <edge id=":2299126322_5" function="internal">
        <lane id=":2299126322_5_0" index="0" disallow="tram rail_urban rail rail_electric rail_fast ship" speed="20.84" length="26.99" shape="1633.67,1443.14 1634.50,1438.21 1636.10,1431.52 1637.12,1423.99 1636.19,1416.53"/>
    </edge>
    <edge id=":2299126322_6" function="internal">
        <lane id=":2299126322_6_0" index="0" disallow="tram rail_urban rail rail_electric rail_fast ship" speed="3.66" length="2.35" shape="1633.67,1443.14 1632.97,1441.87 1632.21,1441.40"/>
    </edge>
    <edge id=":2299126322_13" function="internal">
        <lane id=":2299126322_13_0" index="0" disallow="tram rail_urban rail rail_electric rail_fast ship" speed="3.66" length="2.35" shape="1632.21,1441.40 1631.37,1441.73 1630.47,1442.86"/>
    </edge>
    <edge id=":2299126322_7" function="internal">
        <lane id=":2299126322_7_0" index="0" disallow="tram rail_urban rail rail_electric rail_fast ship" speed="20.84" length="24.50" shape="1630.12,1418.54 1631.49,1425.64 1631.46,1432.38 1630.85,1438.28 1630.47,1442.86"/>
    </edge>
    <edge id=":2299126322_8" function="internal">
        <lane id=":2299126322_8_0" index="0" disallow="tram rail_urban rail rail_electric rail_fast ship" speed="27.78" length="25.32" shape="1630.12,1418.54 1638.03,1442.58"/>
        <lane id=":2299126322_8_1" index="1" disallow="tram rail_urban rail rail_electric rail_fast ship" speed="27.78" length="25.32" shape="1633.16,1417.53 1641.07,1441.58"/>
    </edge>
    <edge id=":2299126322_10" function="internal">
        <lane id=":2299126322_10_0" index="0" disallow="tram rail_urban rail rail_electric rail_fast ship" speed="3.65" length="2.34" shape="1633.16,1417.53 1634.29,1418.42 1635.18,1418.55"/>
    </edge>
    <edge id=":2299126322_14" function="internal">
        <lane id=":2299126322_14_0" index="0" disallow="tram rail_urban rail rail_electric rail_fast ship" speed="3.65" length="2.34" shape="1635.18,1418.55 1635.81,1417.92 1636.19,1416.53"/>
    </edge>
    <edge id=":2299126324_0" function="internal">
        <lane id=":2299126324_0_0" index="0" disallow="tram rail_urban rail rail_electric rail_fast ship" speed="13.89" length="14.18" shape="1644.15,1513.93 1639.81,1500.43"/>
    </edge>
    <edge id=":2299126324_1" function="internal">
        <lane id=":2299126324_1_0" index="0" disallow="tram rail_urban rail rail_electric rail_fast ship" speed="9.00" length="5.22" shape="1644.15,1513.93 1642.42,1510.84 1641.13,1509.77"/>
    </edge>
    <edge id=":2299126324_2" function="internal">
        <lane id=":2299126324_2_0" index="0" disallow="tram rail_urban rail rail_electric rail_fast ship" speed="3.65" length="2.34" shape="1644.15,1513.93 1642.98,1513.08 1642.10,1512.99"/>
    </edge>
    <edge id=":2299126324_9" function="internal">
        <lane id=":2299126324_9_0" index="0" disallow="tram rail_urban rail rail_electric rail_fast ship" speed="9.00" length="9.25" shape="1641.13,1509.77 1639.90,1508.74 1636.56,1507.63 1632.43,1507.52"/>
    </edge>
    <edge id=":2299126324_10" function="internal">
        <lane id=":2299126324_10_0" index="0" disallow="tram rail_urban rail rail_electric rail_fast ship" speed="3.65" length="2.34" shape="1642.10,1512.99 1641.48,1513.64 1641.15,1515.04"/>
    </edge>
    <edge id=":2299126324_3" function="internal">
        <lane id=":2299126324_3_0" index="0" disallow="tram rail_urban rail rail_electric rail_fast ship" speed="7.67" length="10.27" shape="1632.70,1510.71 1635.72,1510.77 1638.13,1511.51 1639.94,1512.94 1641.15,1515.04"/>
    </edge>
    <edge id=":2299126324_4" function="internal">
        <lane id=":2299126324_4_0" index="0" disallow="tram rail_urban rail rail_electric rail_fast ship" speed="7.70" length="14.97" shape="1632.70,1510.71 1636.82,1509.76 1639.37,1507.73 1640.37,1504.62 1639.81,1500.43"/>
    </edge>
    <edge id=":2299126324_5" function="internal">
        <lane id=":2299126324_5_0" index="0" disallow="tram rail_urban rail rail_electric rail_fast ship" speed="3.65" length="4.67" shape="1632.70,1510.71 1633.83,1509.81 1634.16,1508.98 1633.70,1508.22 1632.43,1507.52"/>
    </edge>
    <edge id=":2299126324_6" function="internal">
        <lane id=":2299126324_6_0" index="0" disallow="tram rail_urban rail rail_electric rail_fast ship" speed="6.13" length="9.06" shape="1636.73,1501.30 1637.07,1503.84 1636.47,1505.72 1634.92,1506.94 1632.43,1507.52"/>
    </edge>
    <edge id=":2299126324_7" function="internal">
        <lane id=":2299126324_7_0" index="0" disallow="tram rail_urban rail rail_electric rail_fast ship" speed="13.89" length="14.43" shape="1636.73,1501.30 1641.15,1515.04"/>
    </edge>
    <edge id=":2299126324_8" function="internal">
        <lane id=":2299126324_8_0" index="0" disallow="tram rail_urban rail rail_electric rail_fast ship" speed="3.65" length="2.34" shape="1636.73,1501.30 1637.83,1502.24 1638.71,1502.41"/>
    </edge>
    <edge id=":2299126324_11" function="internal">