<?xml version="1.0" encoding="UTF-8"?>

<!-- generated on Wed Jan 27 12:34:35 2021 by Eclipse SUMO duarouter Version 1.7.0
<configuration xmlns:xsi="http://www.w3.org/2001/XMLSchema-instance" xsi:noNamespaceSchemaLocation="http://sumo.dlr.de/xsd/duarouterConfiguration.xsd">

    <input>
        <net-file value="/home/shashwath/Sumo/Lab%20Test/2nd_sessionals/2021-01-27-12-34-30/osm.net.xml"/>
        <route-files value="/home/shashwath/Sumo/Lab%20Test/2nd_sessionals/2021-01-27-12-34-30/osm.bus.trips.xml"/>
    </input>

    <output>
        <output-file value="routes.rou.xml"/>
        <alternatives-output value="routes.rou.alt.xml"/>
    </output>

    <time>
        <begin value="0"/>
        <end value="3600"/>
    </time>

    <report>
        <no-warnings value="true"/>
        <ignore-errors value="true"/>
        <no-step-log value="true"/>
    </report>

</configuration>
-->

<routes xmlns:xsi="http://www.w3.org/2001/XMLSchema-instance" xsi:noNamespaceSchemaLocation="http://sumo.dlr.de/xsd/routes_file.xsd">
    <vType id="bus_bus" vClass="bus"/>
    <vehicle id="bus0" type="bus_bus" depart="0.00" departLane="best">
        <route edges="279806902#1 294202849#1-AddedOnRampEdge 294202849#1 -22838314#4 -22838314#3 -22838314#2 -22838314#1 -22838314#0 164420821#5 164420820 -54531638#3 -54531638#2 -54531638#1 -54531638#0 -209721150#2 -157712861#1 -157712861#0"/>
    </vehicle>
    <vehicle id="bus1" type="bus_bus" depart="12.00" departLane="best">
        <route edges="-355391696 -355391697#1 -355391697#0 318725571#1 318725571#2 54531638#1 54531638#2 54531638#3 164420819#0 164420819#1 164420821#2 164420821#3 164420821#4 22838314#0 -355391674"/>
    </vehicle>
    <vehicle id="bus2" type="bus_bus" depart="24.01" departLane="best">
        <route edges="355210821 585612367#1 585612367#2 585612367#3 164420821#4 321397980 585612365 585612364#0 297768403#0"/>
    </vehicle>
    <vehicle id="bus3" type="bus_bus" depart="36.01" departLane="best">
        <route edges="54531638#0 54531638#1 54531638#2 54531638#3 164420819#0 164420819#1 164420821#2 164420821#3 164420821#4 22838314#0 -22838314#0"/>
    </vehicle>
    <vehicle id="bus4" type="bus_bus" depart="48.01" departLane="best">
        <route edges="-355391674 355391674 22838314#1 22838314#2 22838314#3 22838314#4 291858158 174471202"/>
    </vehicle>
    <vehicle id="bus6" type="bus_bus" depart="72.02" departLane="best">
        <route edges="279806937 279806902#0 279806902#1 294202849#1-AddedOnRampEdge 294202849#1 -22838314#4 -22838314#3 -22838314#2 -22838314#1 -22838314#0 164420821#5 164420820 -54531638#3 -54531638#2 -54531638#1 -54531638#0 -209721150#2 -209721150#1 209721150#1"/>
    </vehicle>
    <vehicle id="bus7" type="bus_bus" depart="84.02" departLane="best" departSpeed="max">
        <route edges="585612367#0 585612367#1 585612367#2 585612367#3 164420821#4 321397980 585612365 585612364#0 585612364#1 -466857087#1 -466857087#0"/>
    </vehicle>
    <vehicle id="bus8" type="bus_bus" depart="96.03" departLane="best">
        <route edges="355391696 -355391697#0 318725571#1 318725571#2 54531638#1 54531638#2 54531638#3 164420819#0 164420819#1 164420821#2 321398252"/>
    </vehicle>
    <vehicle id="bus9" type="bus_bus" depart="108.03" departLane="best">
        <route edges="-585612364#0 585612364#0 585612364#1 585612364#2 -22838314#4 -22838314#3 -22838314#2 -22838314#1 -22838314#0 164420821#5 164420820 -54531638#3 -54531638#2 -54531638#1 -54531638#0 -209721150#2 209721150#2"/>
    </vehicle>
    <vehicle id="bus10" type="bus_bus" depart="120.03" departLane="best">
        <route edges="355391706#1 -355391706#1 355391674 -22838314#0 164420821#5 164420820 -54531638#3 -54531638#2 -54531638#1 -54531638#0 -27191041#1 -27191041#0 27191041#0"/>
    </vehicle>
    <vehicle id="bus11" type="bus_bus" depart="132.04" departLane="best">
        <route edges="466857087#0 466857087#1 585612364#2 -22838314#4 -22838314#3 -22838314#2 -22838314#1 -22838314#0 164420821#5 164420821#1 164420821#2 164420821#3 164420821#4 22838314#0"/>
    </vehicle>
    <vehicle id="bus12" type="bus_bus" depart="144.04" departLane="best">
        <route edges="-22838314#2 -22838314#1 -22838314#0 164420821#5 164420820 -54531638#3 -54531638#2 -54531638#1 -318725571#2 -318725571#1 355391697#0 -355391696"/>
    </vehicle>
    <vehicle id="bus13" type="bus_bus" depart="156.04" departLane="best">
        <route edges="279806902#0 279806902#1 294202849#1-AddedOnRampEdge 294202849#1 -22838314#4 -22838314#3 -22838314#2 -22838314#1 -22838314#0 164420821#5 164420820 -54531638#3 -54531638#2"/>
    </vehicle>
    <vehicle id="bus14" type="bus_bus" depart="168.05" departLane="best">
        <route edges="-318725571#0 -184750308#0 27191041#1 54531638#0 54531638#1 54531638#2 54531638#3 164420819#0 164420819#1 164420821#2 321398252"/>
    </vehicle>
    <vehicle id="bus15" type="bus_bus" depart="180.05" departLane="best">
        <route edges="-297768403#2 -297768403#1 -297768403#0 -585612364#0"/>
    </vehicle>
    <vehicle id="bus16" type="bus_bus" depart="192.05" departLane="best">
        <route edges="585612367#2 585612367#3 164420821#4 22838314#0 22838314#1 22838314#2 22838314#3 22838314#4 279806937 279806902#0 279806902#1"/>
    </vehicle>
    <vehicle id="bus17" type="bus_bus" depart="204.06" departLane="best">
        <route edges="466857084 466857088 294202849#1-AddedOnRampEdge 294202849#1 -22838314#4 -22838314#3 -22838314#2 -355210814#1 355210826"/>
    </vehicle>
    <vehicle id="bus18" type="bus_bus" depart="216.06" departLane="best">
        <route edges="-466857083 466857087#1 585612364#2 -22838314#4 -22838314#3 -22838314#2 -22838314#1 -22838314#0 164420821#5 164420820 -54531638#3 -54531638#2 -355391685#1 -355391685#0 -355391689"/>
    </vehicle>
    <vehicle id="bus19" type="bus_bus" depart="228.07" departLane="best">
        <route edges="466857088 294202849#1-AddedOnRampEdge 294202849#1 -585612364#2 -466857087#1 466857083 -466857083"/>
    </vehicle>
    <vehicle id="bus20" type="bus_bus" depart="240.07" departLane="best">
        <route edges="22838314#2 -22838314#2 -22838314#1 -22838314#0 164420821#5 164420820 -54531638#3 -54531638#2 -355391685#1"/>
    </vehicle>
    <vehicle id="bus21" type="bus_bus" depart="252.07" departLane="best" departSpeed="max">
        <route edges="26299191#0 26299191#1 164420821#1 164420821#2 164420821#3 164420821#4 321397980 585612365 585612364#0 585612364#1 -466857087#1 -466857087#0 466857087#0"/>
    </vehicle>
    <vehicle id="bus22" type="bus_bus" depart="264.08" departLane="best">
        <route edges="585612367#3 164420821#4 22838314#0 22838314#1 22838314#2 22838314#3 22838314#4 291858158 174471202"/>
    </vehicle>
    <vehicle id="bus23" type="bus_bus" depart="276.08" departLane="best">
        <route edges="-22838314#0 164420821#5 164420820 -54531638#3 -54531638#2 -54531638#1 -54531638#0 -209721150#2 -209721150#1 -209721150#0"/>
    </vehicle>
    <vehicle id="bus24" type="bus_bus" depart="288.08" departLane="best">
        <route edges="-22838314#3 -22838314#2 -22838314#1 -22838314#0 164420821#5 164420820 -54531638#3 -54531638#2 -54531638#1 -54531638#0 -27191041#1 27191041#1"/>
    </vehicle>
    <vehicle id="bus25" type="bus_bus" depart="300.09" departLane="best">
        <route edges="585612367#3 164420821#4 164420821#5 164420820 -54531638#3 -54531638#2 -54531638#1 -54531638#0 -27191041#1 184750308#0"/>
    </vehicle>
    <vehicle id="bus26" type="bus_bus" depart="312.09" departLane="best" departSpeed="max">
        <route edges="585612367#0 585612367#1 585612367#2 585612367#3 164420821#4 164420821#5 164420820 -54531638#3 -54531638#2 -54531638#1 -318725571#2 355391699"/>
    </vehicle>
    <vehicle id="bus27" type="bus_bus" depart="324.09" departLane="best">
        <route edges="297768403#0 297768403#1 297768403#2 -22838314#3 -22838314#2 -22838314#1 -22838314#0 164420821#5 164420820 -54531638#3 -54531638#2 -54531638#1 -54531638#0 -209721150#2 -209721150#1 -209721150#0 209721150#0"/>
    </vehicle>
    <vehicle id="bus28" type="bus_bus" depart="336.10" departLane="best">
        <route edges="-355391689 355391689 26299191#1 164420821#1 164420821#2 164420821#3 164420821#4 22838314#0 22838314#1 22838314#2 22838314#3 22838314#4 279806937 279806902#0 279806902#1"/>
    </vehicle>
    <vehicle id="bus29" type="bus_bus" depart="348.10" departLane="best">
        <route edges="-22838314#3 -22838314#2 -22838314#1 -22838314#0 164420821#5 164420820 -54531638#3 -54531638#2 -54531638#1 -54531638#0 -209721150#2 -157712861#1 157712861#1"/>
    </vehicle>
    <vehicle id="bus30" type="bus_bus" depart="360.10" departLane="best">
        <route edges="164420820 164420819#0 164420819#1 164420821#2 164420821#3 164420821#4 321397980 585612365 585612364#0 585612364#1"/>
    </vehicle>
    <vehicle id="bus31" type="bus_bus" depart="372.11" departLane="best">
        <route edges="466857088 294202849#1-AddedOnRampEdge 294202849#1 -22838314#4 -22838314#3 -22838314#2 -22838314#1 -22838314#0 164420821#5 164420820 -54531638#3 -54531638#2 -355391685#1"/>
    </vehicle>
    <vehicle id="bus32" type="bus_bus" depart="384.11" departLane="best">
        <route edges="54531638#3 164420819#0 164420819#1 164420821#2 164420821#3 164420821#4 321397980 585612365 585612364#0 585612364#1 -466857087#1 466857083"/>
    </vehicle>
    <vehicle id="bus33" type="bus_bus" depart="396.11" departLane="best">
        <route edges="-355391706#0 297768403#2 22838314#4 279806937 279806902#0 279806902#1"/>
    </vehicle>
    <vehicle id="bus34" type="bus_bus" depart="408.12" departLane="best" departSpeed="max">
        <route edges="26299191#0 26299191#1 164420821#1 164420821#2 164420821#3 164420821#4 22838314#0 22838314#1 22838314#2 22838314#3 -297768403#2 -297768403#1"/>
    </vehicle>
    <vehicle id="bus35" type="bus_bus" depart="420.12" departLane="best">
        <route edges="355391679#0 -355391679#0 220826302#1 220826302#2 -54531638#2 -54531638#1 -54531638#0 -209721150#2 -209721150#1 -209721150#0 209721150#0"/>
    </vehicle>
    <vehicle id="bus36" type="bus_bus" depart="432.12" departLane="best">
        <route edges="355391684 -355391684 -355391679#0 220826302#1 220826302#2 -54531638#2 -54531638#1 -54531638#0 -27191041#1 184750308#0 184750308#1"/>
    </vehicle>
    <vehicle id="bus37" type="bus_bus" depart="444.13" departLane="best">
        <route edges="-132363048 27191041#1 54531638#0 54531638#1 54531638#2 54531638#3 164420819#0 164420819#1 164420821#2 164420821#3 164420821#4 321397980 585612366 -466857085#1 -466857085#0"/>
    </vehicle>
    <vehicle id="bus38" type="bus_bus" depart="456.13" departLane="best">
        <route edges="466857088 294202849#1-AddedOnRampEdge 294202849#1 -22838314#4 -22838314#3 -22838314#2 -22838314#1 -22838314#0 164420821#5 164420820 -54531638#3 -54531638#2 -355391685#1 -355391685#0 -355391689 355391689"/>
    </vehicle>
    <vehicle id="bus39" type="bus_bus" depart="468.13" departLane="best">
        <route edges="-355391706#1 355391674 -22838314#0 164420821#5 164420820 -54531638#3 -54531638#2 -54531638#1 -54531638#0 -209721150#2 -209721150#1"/>
    </vehicle>
    <vehicle id="bus40" type="bus_bus" depart="480.14" departLane="best">
        <route edges="466857088 294202849#1-AddedOnRampEdge 294202849#1 -22838314#4 -22838314#3 -22838314#2 -22838314#1 -22838314#0 164420821#5 164420820 -54531638#3 54531638#3"/>
    </vehicle>
    <vehicle id="bus41" type="bus_bus" depart="492.14" departLane="best">
        <route edges="355391679#0 -355391679#0 220826302#1 220826302#2 -54531638#2 -54531638#1 -54531638#0 -27191041#1"/>
    </vehicle>
    <vehicle id="bus42" type="bus_bus" depart="504.14" departLane="best">
        <route edges="-355391689 355391689 26299191#1 164420821#1 164420821#2 164420821#3 164420821#4 321397980 585612365 585612364#0 585612364#1 -466857087#1 466857083"/>
    </vehicle>
    <vehicle id="bus43" type="bus_bus" depart="516.15" departLane="best">
        <route edges="132363057#1 -220826302#1 164420819#1 164420821#2 164420821#3 164420821#4 22838314#0 22838314#1 -355210814#1 355210826 -355210826"/>
    </vehicle>
    <vehicle id="bus44" type="bus_bus" depart="528.15" departLane="best">
        <route edges="-355210821 355210821 585612367#1 585612367#2 585612367#3 164420821#4 321397980 585612365 585612364#0 585612364#1 -466857087#1 466857083 -466857083"/>
    </vehicle>
    <vehicle id="bus45" type="bus_bus" depart="540.15" departLane="best">
        <route edges="585612367#3 164420821#4 22838314#0 22838314#1 22838314#2 22838314#3 22838314#4 279806937"/>
    </vehicle>
    <vehicle id="bus46" type="bus_bus" depart="552.16" departLane="best">
        <route edges="164420819#0 164420819#1 164420821#2 164420821#3 164420821#4 22838314#0 22838314#1 22838314#2 22838314#3 22838314#4 291858158 174471202"/>
    </vehicle>
    <vehicle id="bus47" type="bus_bus" depart="564.16" departLane="best">
        <route edges="-27191041#0 27191041#0 27191041#1 54531638#0 54531638#1 54531638#2 54531638#3 164420819#0 164420819#1 164420821#2 164420821#3 164420821#4 22838314#0 -355391674"/>
    </vehicle>
    <vehicle id="bus48" type="bus_bus" depart="576.16" departLane="best">
        <route edges="-466857087#1 466857087#1 585612364#2 -22838314#4 -22838314#3 -22838314#2 -22838314#1 22838314#1"/>
    </vehicle>
    <vehicle id="bus49" type="bus_bus" depart="588.17" departLane="best">
        <route edges="-220826299 132363057#1 -220826302#1 164420819#1 164420821#2 164420821#3 164420821#4 22838314#0 22838314#1 22838314#2 22838314#3 22838314#4 279806937 279806902#0"/>
    </vehicle>
    <vehicle id="bus50" type="bus_bus" depart="600.17" departLane="best">
        <route edges="-355391679#0 164420819#1 164420821#2 164420821#3 164420821#4 321397980 585612365 585612364#0 585612364#1 -466857087#1 466857087#1"/>
    </vehicle>
    <vehicle id="bus51" type="bus_bus" depart="612.18" departLane="best">
        <route edges="466857085#1 297768403#1 297768403#2 -22838314#3 -22838314#2 -22838314#1 -22838314#0 164420821#5 164420820 -54531638#3 -220826302#2 -132363057#1 220826300 -220826299"/>
    </vehicle>
    <vehicle id="bus52" type="bus_bus" depart="624.18" departLane="best">
        <route edges="-355391679#1 -355391679#0 164420819#1 164420821#2 164420821#3 164420821#4 22838314#0 22838314#1 22838314#2 22838314#3 22838314#4 279806937 279806902#0 279806902#1 294202849#1-AddedOnRampEdge"/>
    </vehicle>
    <vehicle id="bus53" type="bus_bus" depart="636.18" departLane="best">
        <route edges="-355212036 355212036 -22838314#2 -22838314#1 -22838314#0 164420821#5 164420820 -54531638#3 -54531638#2 -54531638#1 -54531638#0 -27191041#1"/>
    </vehicle>
    <vehicle id="bus54" type="bus_bus" depart="648.19" departLane="best">
        <route edges="355391696 -355391697#0 318725571#1 318725571#2 54531638#1 54531638#2 54531638#3 164420819#0 164420819#1 164420821#2 164420821#3 164420821#4 22838314#0 22838314#1 -355210814#1 -355210814#0"/>
    </vehicle>
    <vehicle id="bus55" type="bus_bus" depart="660.19" departLane="best">
        <route edges="-22838314#1 -22838314#0 164420821#5 164420820 -54531638#3 -54531638#2 -54531638#1 -54531638#0 -209721150#2 -157712861#1 157712861#1"/>
    </vehicle>
    <vehicle id="bus56" type="bus_bus" depart="672.19" departLane="best">
        <route edges="355210814#1 22838314#2 22838314#3 22838314#4 279806937 279806902#0 279806902#1 294202849#1-AddedOnRampEdge"/>
    </vehicle>
    <vehicle id="bus57" type="bus_bus" depart="684.20" departLane="best">
        <route edges="466857087#0 466857087#1 585612364#2 -22838314#4 -22838314#3 -22838314#2 -22838314#1 -22838314#0 164420821#5 164420820 164420819#0 355391679#0 355391684 -355391684"/>
    </vehicle>
    <vehicle id="bus58" type="bus_bus" depart="696.20" departLane="best">
        <route edges="22838314#1 -22838314#1 -22838314#0 164420821#5 164420820 -54531638#3 -54531638#2 -54531638#1 -54531638#0 -209721150#2 -209721150#1 -209721150#0"/>
    </vehicle>
    <vehicle id="bus59" type="bus_bus" depart="708.20" departLane="best">
        <route edges="585612367#3 164420821#4 164420821#5 164420820 -54531638#3 -54531638#2 -54531638#1 -318725571#2 -318725571#1 355391697#0 355391697#1 355391696"/>
    </vehicle>
    <vehicle id="bus60" type="bus_bus" depart="720.21" departLane="best" departSpeed="max">
        <route edges="585612367#0 585612367#1 585612367#2 585612367#3 164420821#4 164420821#5 164420820 -54531638#3 -54531638#2 -54531638#1 -54531638#0 54531638#0"/>
    </vehicle>
    <vehicle id="bus61" type="bus_bus" depart="732.21" departLane="best">
        <route edges="466857085#0 466857085#1 297768403#1 297768403#2 -22838314#3 -22838314#2 -22838314#1 -22838314#0 164420821#5 164420820 -54531638#3 -54531638#2 -54531638#1 -318725571#2 -318725571#1 -318725571#0"/>
    </vehicle>
    <vehicle id="bus62" type="bus_bus" depart="744.21" departLane="best">
        <route edges="164420821#5 164420821#1 164420821#2 164420821#3 164420821#4 22838314#0 22838314#1 22838314#2 -355212036"/>
    </vehicle>
    <vehicle id="bus63" type="bus_bus" depart="756.22" departLane="best">
        <route edges="-585612366 585612366 297768403#1 297768403#2 -22838314#3 -22838314#2 -22838314#1 -22838314#0 164420821#5 164420820 -54531638#3 -54531638#2 -54531638#1 -54531638#0 -209721150#2 -209721150#1"/>
    </vehicle>
    <vehicle id="bus65" type="bus_bus" depart="780.22" departLane="best">
        <route edges="-355391689 355391689 26299191#1 164420821#1 164420821#2 164420821#3 164420821#4 22838314#0 22838314#1 22838314#2 -355212036 355212036"/>
    </vehicle>
    <vehicle id="bus66" type="bus_bus" depart="792.23" departLane="best">
        <route edges="-297768403#1 297768403#1 297768403#2 -22838314#3 -22838314#2 -22838314#1 -22838314#0 164420821#5 164420820 -54531638#3 -54531638#2 -355391685#1 -355391699"/>
    </vehicle>
    <vehicle id="bus67" type="bus_bus" depart="804.23" departLane="best" departSpeed="max">
        <route edges="585612367#0 585612367#1 585612367#2 585612367#3 164420821#4 22838314#0"/>
    </vehicle>
    <vehicle id="bus68" type="bus_bus" depart="816.23" departLane="best">
        <route edges="-209721150#1 209721150#1 209721150#2 54531638#0 54531638#1 54531638#2 54531638#3 164420819#0 164420819#1 164420821#2 164420821#3 164420821#4 22838314#0 22838314#1"/>
    </vehicle>
    <vehicle id="bus69" type="bus_bus" depart="828.24" departLane="best" departSpeed="max">
        <route edges="26299191#0 26299191#1 164420821#1 164420821#2 164420821#3 164420821#4 22838314#0 22838314#1 22838314#2 22838314#3 22838314#4 279806937 279806902#0 279806902#1 294202849#1-AddedOnRampEdge"/>
    </vehicle>
    <vehicle id="bus70" type="bus_bus" depart="840.24" departLane="best">
        <route edges="-355391679#1 -355391679#0 220826302#1 220826302#2 -54531638#2 -54531638#1 -54531638#0 -27191041#1 -27191041#0"/>
    </vehicle>
    <vehicle id="bus71" type="bus_bus" depart="852.24" departLane="best" departSpeed="max">
        <route edges="26299191#0 355391685#0 355391685#1 -54531638#1 -54531638#0 -27191041#1 -27191041#0 27191041#0"/>
    </vehicle>
    <vehicle id="bus72" type="bus_bus" depart="864.25" departLane="best">
        <route edges="132363057#1 -220826302#1 164420819#1 164420821#2 164420821#3 164420821#4 22838314#0 22838314#1"/>
    </vehicle>
    <vehicle id="bus73" type="bus_bus" depart="876.25" departLane="best">
        <route edges="-355210821 355210821 585612367#1 585612367#2 585612367#3 164420821#4 321397980"/>
    </vehicle>
    <vehicle id="bus74" type="bus_bus" depart="888.25" departLane="best">
        <route edges="-466857083 466857087#1 585612364#2 -22838314#4 -22838314#3 -22838314#2 -22838314#1 -22838314#0 164420821#5 164420821#1 164420821#2 321398252"/>
    </vehicle>
    <vehicle id="bus75" type="bus_bus" depart="900.26" departLane="best">
        <route edges="-220826302#1 164420819#1 164420821#2 164420821#3 164420821#4 22838314#0 22838314#1 22838314#2 -355212036"/>
    </vehicle>
    <vehicle id="bus76" type="bus_bus" depart="912.26" departLane="best">
        <route edges="466857089 466857085#1 297768403#1 297768403#2 22838314#4 279806937 279806902#0 466857084"/>
    </vehicle>
    <vehicle id="bus77" type="bus_bus" depart="924.26" departLane="best">
        <route edges="355391706#1 -355391706#1 355391674 -22838314#0 164420821#5 164420820 -54531638#3 -54531638#2 -54531638#1 -318725571#2 -318725571#1 318725571#1"/>
    </vehicle>
    <vehicle id="bus78" type="bus_bus" depart="936.27" departLane="best">
        <route edges="26299191#1 164420821#1 164420821#2 164420821#3 164420821#4 22838314#0 22838314#1 -355210814#1 -355210814#0 585612367#2"/>
    </vehicle>
    <vehicle id="bus79" type="bus_bus" depart="948.27" departLane="best">
        <route edges="279806937 279806902#0 279806902#1 294202849#1-AddedOnRampEdge 294202849#1 -22838314#4 -22838314#3 -22838314#2 -22838314#1 -22838314#0 164420821#5 164420820 -54531638#3 -220826302#2 -132363057#1 -132363057#0"/>
    </vehicle>
    <vehicle id="bus80" type="bus_bus" depart="960.27" departLane="best">
        <route edges="355391697#1 355391696 -355391697#0 318725571#1 318725571#2 54531638#1 54531638#2 54531638#3 164420819#0 164420819#1 164420821#2 164420821#3 164420821#4 22838314#0 -355391674 -355391706#0"/>
    </vehicle>
    <vehicle id="bus81" type="bus_bus" depart="972.28" departLane="best">
        <route edges="294202849#1 -22838314#4 -22838314#3 -22838314#2 -22838314#1 -22838314#0 164420821#5 164420820 -54531638#3 -54531638#2 54531638#2"/>
    </vehicle>
    <vehicle id="bus82" type="bus_bus" depart="984.28" departLane="best">
        <route edges="-279806915 279806902#0 279806902#1 294202849#1-AddedOnRampEdge 294202849#1 -22838314#4"/>
    </vehicle>
    <vehicle id="bus83" type="bus_bus" depart="996.28" departLane="best">
        <route edges="-22838314#3 -22838314#2 -22838314#1 -22838314#0 164420821#5 164420820 -54531638#3 -54531638#2 -54531638#1 -54531638#0 -209721150#2 209721150#2"/>
    </vehicle>
    <vehicle id="bus84" type="bus_bus" depart="1008.29" departLane="best">
        <route edges="-355391696 -355391697#1 -355391697#0 318725571#1 318725571#2 54531638#1 54531638#2 54531638#3 164420819#0 164420819#1 164420821#2 164420821#3 164420821#4 22838314#0 22838314#1 22838314#2 22838314#3 22838314#4"/>
    </vehicle>
    <vehicle id="bus85" type="bus_bus" depart="1020.29" departLane="best">
        <route edges="279806902#0 279806902#1 294202849#1-AddedOnRampEdge 294202849#1 -22838314#4 -22838314#3 -22838314#2 -22838314#1 -22838314#0 164420821#5 164420820 -54531638#3 -54531638#2 -355391685#1"/>
    </vehicle>
    <vehicle id="bus86" type="bus_bus" depart="1032.30" departLane="best">
        <route edges="164420821#5 164420821#1 164420821#2 164420821#3 164420821#4 321397980 585612365 585612364#0 585612364#1 -466857087#1 466857087#1"/>
    </vehicle>
    <vehicle id="bus87" type="bus_bus" depart="1044.30" departLane="best">
        <route edges="466857084 466857088 294202849#1-AddedOnRampEdge 294202849#1 -22838314#4 -22838314#3 -22838314#2 -22838314#1 -22838314#0"/>
    </vehicle>
    <vehicle id="bus89" type="bus_bus" depart="1068.31" departLane="best">
        <route edges="279806902#1 294202849#1-AddedOnRampEdge 294202849#1 -22838314#4 -22838314#3 -22838314#2 -22838314#1 -22838314#0 164420821#5 164420820 -54531638#3 -54531638#2 -355391685#1"/>
    </vehicle>
    <vehicle id="bus90" type="bus_bus" depart="1080.31" departLane="best">
        <route edges="355210821 585612367#1 585612367#2 585612367#3 164420821#4 164420821#5 164420820 -54531638#3 -54531638#2 -54531638#1 -54531638#0 -209721150#2 209721150#2"/>
    </vehicle>
    <vehicle id="bus91" type="bus_bus" depart="1092.31" departLane="best">
        <route edges="-220826302#1 164420819#1 164420821#2 164420821#3 164420821#4 321397980 585612366 -466857085#1 -466857085#0 466857085#0"/>
    </vehicle>
    <vehicle id="bus92" type="bus_bus" depart="1104.32" departLane="best">
        <route edges="466857083 -466857083 466857087#1 585612364#2 -22838314#4 -22838314#3 -22838314#2 -22838314#1 -22838314#0 164420821#5 164420821#1 164420821#2 164420821#3 164420821#4 22838314#0"/>
    </vehicle>
    <vehicle id="bus93" type="bus_bus" depart="1116.32" departLane="best">
        <route edges="-297768403#0 585612364#1 585612364#2 -22838314#4 -22838314#3 -22838314#2 -22838314#1 -22838314#0 164420821#5 164420820 -54531638#3 -54531638#2 -54531638#1 -54531638#0 -27191041#1"/>
    </vehicle>
    <vehicle id="bus94" type="bus_bus" depart="1128.32" departLane="best">
        <route edges="-355391706#1 355391674 22838314#1 22838314#2 22838314#3 22838314#4 -585612364#2 -466857087#1 -466857087#0 466857087#0"/>
    </vehicle>
    <vehicle id="bus95" type="bus_bus" depart="1140.33" departLane="best">
        <route edges="54531638#1 54531638#2 54531638#3 164420819#0 164420819#1 164420821#2 164420821#3 164420821#4 22838314#0 22838314#1 -355210814#1 355210826 -355210826"/>
    </vehicle>
    <vehicle id="bus96" type="bus_bus" depart="1152.33" departLane="best">
        <route edges="355391684 -355391684 -355391679#0 164420819#1 164420821#2 164420821#3 164420821#4 321397980 585612366 -466857085#1 -466857085#0 466857085#0"/>
    </vehicle>
    <vehicle id="bus97" type="bus_bus" depart="1164.33" departLane="best">
        <route edges="-297768403#1 297768403#1 297768403#2 -22838314#3 -22838314#2 -22838314#1 -22838314#0 164420821#5 164420820 -54531638#3 -54531638#2 -54531638#1 54531638#1"/>
    </vehicle>
    <vehicle id="bus98" type="bus_bus" depart="1176.34" departLane="best">
        <route edges="355391697#0 -355391697#0 318725571#1 318725571#2 54531638#1 54531638#2 54531638#3 164420819#0 164420819#1 164420821#2 164420821#3 164420821#4 321397980 585612366 -466857085#1 -466857085#0 466857085#0"/>
    </vehicle>
    <vehicle id="bus99" type="bus_bus" depart="1188.34" departLane="best">
        <route edges="-157712861#0 157712861#0 157712861#1 209721150#2 54531638#0 54531638#1 54531638#2 54531638#3 164420819#0 164420819#1 164420821#2 321398252"/>
    </vehicle>
    <vehicle id="bus100" type="bus_bus" depart="1200.34" departLane="best">
        <route edges="-466857087#0 466857087#0 466857087#1 585612364#2 -22838314#4 -22838314#3 -22838314#2 -22838314#1 -22838314#0 164420821#5 164420820 -54531638#3 -54531638#2 -54531638#1 54531638#1"/>
    </vehicle>
    <vehicle id="bus101" type="bus_bus" depart="1212.35" departLane="best">
        <route edges="355391696 -355391697#0 318725571#1 318725571#2 54531638#1 54531638#2 54531638#3 164420819#0 164420819#1 164420821#2 164420821#3 164420821#4 22838314#0 -355391674 355391706#1"/>
    </vehicle>
    <vehicle id="bus102" type="bus_bus" depart="1224.35" departLane="best">
        <route edges="355391685#0 355391685#1 54531638#2 54531638#3 164420819#0 164420819#1 164420821#2 164420821#3 164420821#4 22838314#0 22838314#1 22838314#2 22838314#3 -22838314#3"/>
    </vehicle>
    <vehicle id="bus103" type="bus_bus" depart="1236.35" departLane="best">
        <route edges="466857087#1 585612364#2 -22838314#4 -22838314#3 -22838314#2 -22838314#1 -22838314#0 164420821#5 164420820 -54531638#3 -54531638#2 -54531638#1 -318725571#2 355391699"/>
    </vehicle>
    <vehicle id="bus104" type="bus_bus" depart="1248.36" departLane="best">
        <route edges="-355391674 355391674 -22838314#0 164420821#5 164420820 -54531638#3 -54531638#2 -355391685#1 -355391685#0 355391685#0"/>
    </vehicle>
    <vehicle id="bus105" type="bus_bus" depart="1260.36" departLane="best">
        <route edges="-157712861#0 157712861#0 157712861#1 209721150#2 54531638#0 54531638#1 54531638#2 54531638#3 164420819#0 164420819#1 164420821#2 164420821#3 164420821#4 22838314#0 22838314#1 -355210814#1"/>
    </vehicle>
    <vehicle id="bus106" type="bus_bus" depart="1272.36" departLane="best" departSpeed="max">
        <route edges="585612367#0 585612367#1 585612367#2 585612367#3 164420821#4 164420821#5 164420820 -54531638#3 -54531638#2 -54531638#1 -318725571#2 -318725571#1 355391697#0 -355391697#0"/>
    </vehicle>
    <vehicle id="bus107" type="bus_bus" depart="1284.37" departLane="best">
        <route edges="279806902#1 294202849#1-AddedOnRampEdge 294202849#1 -22838314#4 -297768403#2 -297768403#1 -585612366"/>
    </vehicle>
    <vehicle id="bus108" type="bus_bus" depart="1296.37" departLane="best">
        <route edges="585612367#1 585612367#2 585612367#3 164420821#4 164420821#5 164420820 -54531638#3 -54531638#2 -54531638#1 -54531638#0 -27191041#1 184750308#0 184750308#1"/>
    </vehicle>
    <vehicle id="bus109" type="bus_bus" depart="1308.37" departLane="best">
        <route edges="585612365 585612364#0 585612364#1 585612364#2 -22838314#4"/>
    </vehicle>
    <vehicle id="bus110" type="bus_bus" depart="1320.38" departLane="best" departSpeed="max">
        <route edges="585612367#0 585612367#1 585612367#2 585612367#3 164420821#4 164420821#5 164420820 -54531638#3 -54531638#2 -54531638#1 -318725571#2 -318725571#1"/>
    </vehicle>
    <vehicle id="bus111" type="bus_bus" depart="1332.38" departLane="best" departSpeed="max">
        <route edges="585612367#0 585612367#1 585612367#2 585612367#3 164420821#4 164420821#5 164420820 -54531638#3 -54531638#2 -355391685#1 -355391685#0 -355391689"/>
    </vehicle>
    <vehicle id="bus112" type="bus_bus" depart="1344.38" departLane="best">
        <route edges="-22838314#3 -22838314#2 -22838314#1 -22838314#0 164420821#5 164420820 -54531638#3 -54531638#2 -54531638#1 -54531638#0 -209721150#2 -157712861#1 157712861#1"/>
    </vehicle>
    <vehicle id="bus113" type="bus_bus" depart="1356.39" departLane="best">
        <route edges="355210814#1 22838314#2 22838314#3 22838314#4 -585612364#2 -466857087#1 466857083 -466857083"/>
    </vehicle>
    <vehicle id="bus114" type="bus_bus" depart="1368.39" departLane="best" departSpeed="max">
        <route edges="26299191#0 26299191#1 164420821#1 164420821#2 164420821#3 164420821#4 22838314#0 22838314#1 22838314#2 22838314#3 22838314#4 291858158 174471202"/>