<?xml version="1.0" encoding="UTF-8"?>

<!-- generated on Sun Jan 10 08:10:12 2021 by Eclipse SUMO netedit Version 1.7.0
<configuration xmlns:xsi="http://www.w3.org/2001/XMLSchema-instance" xsi:noNamespaceSchemaLocation="http://sumo.dlr.de/xsd/netconvertConfiguration.xsd">

    <input>
        <sumo-net-file value="/home/shashwath/Sumo/Lab%20Test/test.net.xml"/>
    </input>

    <output>
        <output-file value="/home/shashwath/Sumo/Lab%20Test/test.net.xml"/>
    </output>

    <processing>
        <geometry.min-radius.fix.railways value="false"/>
        <geometry.max-grade.fix value="false"/>
        <offset.disable-normalization value="true"/>
        <lefthand value="false"/>
    </processing>

    <junctions>
        <no-turnarounds value="true"/>
        <junctions.corner-detail value="5"/>
        <junctions.limit-turn-speed value="5.5"/>
        <rectangular-lane-cut value="false"/>
    </junctions>

    <pedestrian>
        <walkingareas value="false"/>
    </pedestrian>

    <netedit>
        <route-files value="/home/shashwath/Sumo/Lab%20Test/private.rou.xml"/>
    </netedit>

    <report>
        <aggregate-warnings value="5"/>
    </report>

</configuration>
-->

<routes xmlns:xsi="http://www.w3.org/2001/XMLSchema-instance" xsi:noNamespaceSchemaLocation="http://sumo.dlr.de/xsd/routes_file.xsd">
    <vType id="DEFAULT_BIKETYPE" vClass="motorcycle" color="green"/>
    <vType id="DEFAULT_VEHTYPE" vClass="emergency" color="yellow"/>
    <vType id="army" vClass="army" color="0,128,0"/>
    <vType id="bus" vClass="bus" color="red"/>
    <vType id="private" vClass="private" color="white"/>
    <vType id="vType_0"/>
    <vType id="vType_1"/>
    <vType id="vType_2"/>
    <vType id="vType_3"/>
    <trip id="vehicle_0" type="DEFAULT_BIKETYPE" depart="0.00" color="red" from="gneE5" to="-gneE5" via="gneE7 gneE8 -gneE8 -gneE7 gneE6 -gneE6"/>
    <trip id="vehicle_1" type="bus" depart="0.00" from="gneE5" to="-gneE5" via="gneE7 -gneE7 gneE6"/>
    <trip id="vehicle_2" type="private" depart="0.00" from="gneE5" to="-gneE5" via="gneE7 -gneE8 -gneE7 gneE6 -gneE6"/>
    <trip id="vehicle_3" type="DEFAULT_BIKETYPE" depart="0.00" color="green" from="gneE5" to="-gneE5" via="gneE7 gneE8 -gneE8 -gneE7 gneE6 -gneE6"/>
    <trip id="vehicle_4" depart="0.00" color="blue" from="gneE5" to="-gneE5" via="gneE7 gneE8 -gneE8 -gneE7 gneE6 -gneE6"/>
    <trip id="vehicle_5" type="army" depart="0.00" from="gneE5" to="-gneE5" via="gneE7 gneE8 -gneE8 -gneE7 gneE6 -gneE6"/>
</routes>
