<?xml version="1.0" encoding="UTF-8"?>

<!-- generated on Thu Dec 24 17:38:26 2020 by Eclipse SUMO duarouter Version 1.7.0
<configuration xmlns:xsi="http://www.w3.org/2001/XMLSchema-instance" xsi:noNamespaceSchemaLocation="http://sumo.dlr.de/xsd/duarouterConfiguration.xsd">

    <input>
        <net-file value="/home/shashwath/Sumo/2020-12-24-17-38-13/osm.net.xml"/>
        <route-files value="/home/shashwath/Sumo/2020-12-24-17-38-13/osm.bicycle.trips.xml"/>
    </input>

    <output>
        <output-file value="/home/shashwath/Sumo/2020-12-24-17-38-13/osm.bicycle.trips.xml.tmp"/>
        <write-trips value="true"/>
    </output>

    <time>
        <begin value="0"/>
        <end value="3600"/>
    </time>

    <report>
        <no-warnings value="true"/>
        <ignore-errors value="true"/>
        <no-step-log value="true"/>
    </report>

</configuration>
-->

<routes xmlns:xsi="http://www.w3.org/2001/XMLSchema-instance" xsi:noNamespaceSchemaLocation="http://sumo.dlr.de/xsd/routes_file.xsd">
    <vType id="bike_bicycle" vClass="bicycle"/>
    <trip id="bike0" type="bike_bicycle" depart="0.00" departLane="best" from="171902837#1" to="-133637886"/>
    <trip id="bike1" type="bike_bicycle" depart="2.46" departLane="best" from="-246982755#0" to="-186258773#0"/>
    <trip id="bike2" type="bike_bicycle" depart="4.92" departLane="best" from="236471188#0" to="186250480#2"/>
    <trip id="bike5" type="bike_bicycle" depart="12.30" departLane="best" from="-186258457" to="133637487#5"/>
    <trip id="bike7" type="bike_bicycle" depart="17.21" departLane="best" from="171902843#1" to="133755133#0"/>
    <trip id="bike8" type="bike_bicycle" depart="19.67" departLane="best" from="-186258462#0" to="171865797#7"/>
    <trip id="bike9" type="bike_bicycle" depart="22.13" departLane="best" from="306475949" to="-133637484#0"/>
    <trip id="bike10" type="bike_bicycle" depart="24.59" departLane="best" from="306475947#0" to="186254736#8"/>
    <trip id="bike11" type="bike_bicycle" depart="27.05" departLane="best" from="-706318004#1" to="-171902837#0"/>
    <trip id="bike12" type="bike_bicycle" depart="29.51" departLane="best" from="803758022" to="-706173404#0"/>
    <trip id="bike13" type="bike_bicycle" depart="31.97" departLane="best" from="-171865797#10" to="-171865797#4"/>
    <trip id="bike14" type="bike_bicycle" depart="34.43" departLane="best" from="706734275#2" to="171867130#0"/>
    <trip id="bike15" type="bike_bicycle" depart="36.89" departLane="best" from="306475947#1" to="186263426#1"/>
    <trip id="bike17" type="bike_bicycle" depart="41.81" departLane="best" from="-800384385" to="135530186#1"/>
    <trip id="bike18" type="bike_bicycle" depart="44.27" departLane="best" from="706173403" to="171870075#0"/>
    <trip id="bike19" type="bike_bicycle" depart="46.73" departLane="best" from="715685821" to="171865792#3"/>
    <trip id="bike20" type="bike_bicycle" depart="49.19" departLane="best" from="186258459" to="-133755126#2"/>
    <trip id="bike21" type="bike_bicycle" depart="51.64" departLane="best" from="-186262687#11" to="-288926324#0"/>
    <trip id="bike22" type="bike_bicycle" depart="54.10" departLane="best" from="-171865779" to="-186262687#2"/>
    <trip id="bike23" type="bike_bicycle" depart="56.56" departLane="best" from="-171865800" to="-246982756"/>
    <trip id="bike24" type="bike_bicycle" depart="59.02" departLane="best" from="171902835#1" to="-713329449"/>
    <trip id="bike25" type="bike_bicycle" depart="61.48" departLane="best" from="-720452476" to="-186254736#6"/>
    <trip id="bike27" type="bike_bicycle" depart="66.40" departLane="best" from="171902842#1" to="171867131#2"/>
    <trip id="bike28" type="bike_bicycle" depart="68.86" departLane="best" from="-173655926#0" to="186263426#0"/>
    <trip id="bike29" type="bike_bicycle" depart="71.32" departLane="best" from="-171902842#0" to="-800384385"/>
    <trip id="bike30" type="bike_bicycle" depart="73.78" departLane="best" from="809425539" to="171902835#4"/>
    <trip id="bike32" type="bike_bicycle" depart="78.70" departLane="best" from="706734274#0" to="286437949"/>
    <trip id="bike33" type="bike_bicycle" depart="81.16" departLane="best" from="-186262687#12" to="-133755118#0"/>
    <trip id="bike36" type="bike_bicycle" depart="88.53" departLane="best" from="800384384" to="-306475946#0"/>
    <trip id="bike39" type="bike_bicycle" depart="95.91" departLane="best" from="-245441027#5" to="-186263438#0"/>
    <trip id="bike43" type="bike_bicycle" depart="105.75" departLane="best" from="817230302" to="133637883#4"/>
    <trip id="bike44" type="bike_bicycle" depart="108.21" departLane="best" from="-171865797#0" to="-133755126#4"/>
    <trip id="bike45" type="bike_bicycle" depart="110.67" departLane="best" from="-171867127#1" to="171870085#0"/>
    <trip id="bike46" type="bike_bicycle" depart="113.13" departLane="best" from="306475941#1" to="-800610511"/>
    <trip id="bike47" type="bike_bicycle" depart="115.59" departLane="best" from="-135530186#10" to="-800384387#0"/>
    <trip id="bike48" type="bike_bicycle" depart="118.05" departLane="best" from="812556709" to="133755126#10"/>
    <trip id="bike49" type="bike_bicycle" depart="120.50" departLane="best" from="803758037" to="714381034"/>
    <trip id="bike50" type="bike_bicycle" depart="122.96" departLane="best" from="-133637487#0" to="186262687#5"/>
    <trip id="bike51" type="bike_bicycle" depart="125.42" departLane="best" from="186250796" to="133755126#4"/>
    <trip id="bike52" type="bike_bicycle" depart="127.88" departLane="best" from="-245441027#7" to="171902837#0"/>
    <trip id="bike53" type="bike_bicycle" depart="130.34" departLane="best" from="-171867128" to="-800669881"/>
    <trip id="bike54" type="bike_bicycle" depart="132.80" departLane="best" from="-803758020" to="803758018"/>
    <trip id="bike58" type="bike_bicycle" depart="142.64" departLane="best" from="-290646812#1" to="171902835#2"/>
    <trip id="bike59" type="bike_bicycle" depart="145.10" departLane="best" from="171867136#0" to="-171902835#2"/>
    <trip id="bike60" type="bike_bicycle" depart="147.56" departLane="best" from="246982756" to="133755126#7"/>
    <trip id="bike61" type="bike_bicycle" depart="150.02" departLane="best" from="288926324#2" to="133755126#11"/>
    <trip id="bike62" type="bike_bicycle" depart="152.48" departLane="best" from="-122612356#0" to="-306475951"/>
    <trip id="bike63" type="bike_bicycle" depart="154.93" departLane="best" from="-133637883#1" to="800669876"/>
    <trip id="bike64" type="bike_bicycle" depart="157.39" departLane="best" from="800384387#0" to="706173404#2"/>
    <trip id="bike68" type="bike_bicycle" depart="167.23" departLane="best" from="-135530186#7" to="246982749#1"/>
    <trip id="bike69" type="bike_bicycle" depart="169.69" departLane="best" from="246989083#3" to="-171867137#0"/>
    <trip id="bike71" type="bike_bicycle" depart="174.61" departLane="best" from="-245441027#5" to="800384380"/>
    <trip id="bike72" type="bike_bicycle" depart="177.07" departLane="best" from="-800669860" to="-186254736#8"/>
    <trip id="bike73" type="bike_bicycle" depart="179.53" departLane="best" from="133755126#9" to="186263426#1"/>
    <trip id="bike75" type="bike_bicycle" depart="184.45" departLane="best" from="812556708" to="171902842#1"/>
    <trip id="bike76" type="bike_bicycle" depart="186.91" departLane="best" from="-800669888" to="133755117#1"/>
    <trip id="bike77" type="bike_bicycle" depart="189.36" departLane="best" from="-171867133" to="-186258773#1"/>
    <trip id="bike78" type="bike_bicycle" depart="191.82" departLane="best" from="-706173405#0" to="171865797#6"/>
    <trip id="bike79" type="bike_bicycle" depart="194.28" departLane="best" from="-186262687#14" to="-186258459"/>
    <trip id="bike80" type="bike_bicycle" depart="196.74" departLane="best" from="-158486424#0" to="171870086#2"/>
    <trip id="bike81" type="bike_bicycle" depart="199.20" departLane="best" from="-186262687#12" to="800610495#0"/>
    <trip id="bike84" type="bike_bicycle" depart="206.58" departLane="best" from="-186258453" to="-171870075#0"/>
    <trip id="bike85" type="bike_bicycle" depart="209.04" departLane="best" from="800669882" to="171865789"/>
    <trip id="bike86" type="bike_bicycle" depart="211.50" departLane="best" from="-804207578#0" to="290520225#0"/>
    <trip id="bike87" type="bike_bicycle" depart="213.96" departLane="best" from="306475947#1" to="-186250480#1"/>
    <trip id="bike88" type="bike_bicycle" depart="216.42" departLane="best" from="-171865797#4" to="-800669877"/>
    <trip id="bike91" type="bike_bicycle" depart="223.79" departLane="best" from="804217356#4" to="-171865797#6"/>
    <trip id="bike93" type="bike_bicycle" depart="228.71" departLane="best" from="715685821" to="-186276679#0"/>
    <trip id="bike96" type="bike_bicycle" depart="236.09" departLane="best" from="-236471187#0" to="800669860"/>
    <trip id="bike97" type="bike_bicycle" depart="238.55" departLane="best" from="-803757988#1" to="715685821"/>
    <trip id="bike98" type="bike_bicycle" depart="241.01" departLane="best" from="135530186#1" to="-133755126#8"/>
    <trip id="bike100" type="bike_bicycle" depart="245.93" departLane="best" from="803758035#1" to="800669864"/>
    <trip id="bike101" type="bike_bicycle" depart="248.39" departLane="best" from="706734275#3" to="-171902843#1"/>
    <trip id="bike102" type="bike_bicycle" depart="250.85" departLane="best" from="-817230302" to="-186258449"/>
    <trip id="bike105" type="bike_bicycle" depart="258.22" departLane="best" from="-245441027#5" to="288926324#5"/>
    <trip id="bike108" type="bike_bicycle" depart="265.60" departLane="best" from="135530186#7" to="186262687#15"/>
    <trip id="bike109" type="bike_bicycle" depart="268.06" departLane="best" from="-171902837#0" to="-290520226"/>
    <trip id="bike110" type="bike_bicycle" depart="270.52" departLane="best" from="803758035#1" to="171865792#7"/>
    <trip id="bike111" type="bike_bicycle" depart="272.98" departLane="best" from="133755127#2" to="236471195#1"/>
    <trip id="bike112" type="bike_bicycle" depart="275.44" departLane="best" from="-133755133#2" to="171865797#2"/>
    <trip id="bike113" type="bike_bicycle" depart="277.90" departLane="best" from="133637487#5" to="713329439"/>
    <trip id="bike116" type="bike_bicycle" depart="285.28" departLane="best" from="171867126#7" to="186250480#1"/>
    <trip id="bike117" type="bike_bicycle" depart="287.74" departLane="best" from="-186262687#7" to="-171867131#2"/>
    <trip id="bike119" type="bike_bicycle" depart="292.65" departLane="best" from="171867126#7" to="171870075#1"/>
    <trip id="bike120" type="bike_bicycle" depart="295.11" departLane="best" from="-800610510" to="171865797#11"/>
    <trip id="bike121" type="bike_bicycle" depart="297.57" departLane="best" from="133755118#5" to="800669881"/>
    <trip id="bike122" type="bike_bicycle" depart="300.03" departLane="best" from="-186254736#0" to="186262687#12"/>
    <trip id="bike124" type="bike_bicycle" depart="304.95" departLane="best" from="173655938#8" to="-290646813"/>
    <trip id="bike126" type="bike_bicycle" depart="309.87" departLane="best" from="-158486424#2" to="-803758024"/>
    <trip id="bike128" type="bike_bicycle" depart="314.79" departLane="best" from="-158486424#3" to="-186258449"/>
    <trip id="bike129" type="bike_bicycle" depart="317.25" departLane="best" from="-245441027#5" to="800669880#1"/>
    <trip id="bike130" type="bike_bicycle" depart="319.71" departLane="best" from="800384387#2" to="800384387#1"/>
    <trip id="bike131" type="bike_bicycle" depart="322.17" departLane="best" from="-715685827" to="-171902839#0"/>
    <trip id="bike132" type="bike_bicycle" depart="324.62" departLane="best" from="706173405#1" to="186258455#1"/>
    <trip id="bike134" type="bike_bicycle" depart="329.54" departLane="best" from="171904519#2" to="-133637484#1"/>
    <trip id="bike135" type="bike_bicycle" depart="332.00" departLane="best" from="374530997#1" to="-290646812#1"/>
    <trip id="bike136" type="bike_bicycle" depart="334.46" departLane="best" from="173655932#1" to="800669887"/>
    <trip id="bike137" type="bike_bicycle" depart="336.92" departLane="best" from="-171870076#1" to="-171867130#1"/>
    <trip id="bike138" type="bike_bicycle" depart="339.38" departLane="best" from="-171867126#7" to="135530186#10"/>
    <trip id="bike139" type="bike_bicycle" depart="341.84" departLane="best" from="-246982749#1" to="171867130#2"/>
    <trip id="bike140" type="bike_bicycle" depart="344.30" departLane="best" from="186262687#4" to="-186254733#1"/>
    <trip id="bike142" type="bike_bicycle" depart="349.22" departLane="best" from="122612356#0" to="800610495#0"/>
    <trip id="bike143" type="bike_bicycle" depart="351.68" departLane="best" from="706734275#0" to="-171865797#1"/>
    <trip id="bike144" type="bike_bicycle" depart="354.14" departLane="best" from="-800669861" to="-246982755#1"/>
    <trip id="bike145" type="bike_bicycle" depart="356.60" departLane="best" from="-122612374#1" to="246989090"/>
    <trip id="bike147" type="bike_bicycle" depart="361.51" departLane="best" from="236471193#0" to="135530186#1"/>
    <trip id="bike148" type="bike_bicycle" depart="363.97" departLane="best" from="-800669875" to="-133637484#3"/>
    <trip id="bike149" type="bike_bicycle" depart="366.43" departLane="best" from="-158486424#5" to="800384388"/>
    <trip id="bike150" type="bike_bicycle" depart="368.89" departLane="best" from="800610493" to="133755133#1"/>
    <trip id="bike151" type="bike_bicycle" depart="371.35" departLane="best" from="706318004#0" to="171865797#10"/>
    <trip id="bike152" type="bike_bicycle" depart="373.81" departLane="best" from="-171902829#1" to="-171867136#4"/>
    <trip id="bike154" type="bike_bicycle" depart="378.73" departLane="best" from="306475943#0" to="714381034"/>
    <trip id="bike156" type="bike_bicycle" depart="383.65" departLane="best" from="-236471187#0" to="-171867126#0"/>
    <trip id="bike157" type="bike_bicycle" depart="386.11" departLane="best" from="288926324#4" to="800384389"/>
    <trip id="bike158" type="bike_bicycle" depart="388.57" departLane="best" from="-800610495#0" to="171870076#0"/>
    <trip id="bike159" type="bike_bicycle" depart="391.03" departLane="best" from="-171902835#4" to="800669877"/>
    <trip id="bike161" type="bike_bicycle" depart="395.94" departLane="best" from="306475950" to="800384387#3"/>
    <trip id="bike162" type="bike_bicycle" depart="398.40" departLane="best" from="-133637886" to="236471187#0"/>
    <trip id="bike164" type="bike_bicycle" depart="403.32" departLane="best" from="306475946#1" to="715685826#0"/>
    <trip id="bike166" type="bike_bicycle" depart="408.24" departLane="best" from="290646813" to="-171867126#7"/>
    <trip id="bike170" type="bike_bicycle" depart="418.08" departLane="best" from="306475942#2" to="-186262687#10"/>
    <trip id="bike171" type="bike_bicycle" depart="420.54" departLane="best" from="-133637885" to="-186250480#4"/>
    <trip id="bike172" type="bike_bicycle" depart="423.00" departLane="best" from="-543878957" to="715685826#0"/>
    <trip id="bike173" type="bike_bicycle" depart="425.46" departLane="best" from="803758032" to="-246989083#1"/>
    <trip id="bike175" type="bike_bicycle" depart="430.37" departLane="best" from="804217356#1" to="133755126#4"/>
    <trip id="bike176" type="bike_bicycle" depart="432.83" departLane="best" from="800669887" to="-171867130#1"/>
    <trip id="bike178" type="bike_bicycle" depart="437.75" departLane="best" from="803758027" to="-245441027#5"/>
    <trip id="bike179" type="bike_bicycle" depart="440.21" departLane="best" from="-171867127#0" to="-800669881"/>
    <trip id="bike180" type="bike_bicycle" depart="442.67" departLane="best" from="186263433#1" to="-306475945"/>
    <trip id="bike181" type="bike_bicycle" depart="445.13" departLane="best" from="171867131#2" to="133637884"/>
    <trip id="bike182" type="bike_bicycle" depart="447.59" departLane="best" from="-800384389" to="171865792#2"/>
    <trip id="bike183" type="bike_bicycle" depart="450.05" departLane="best" from="-236471191" to="186258462#1"/>
    <trip id="bike184" type="bike_bicycle" depart="452.51" departLane="best" from="-122612356#1" to="800669863"/>
    <trip id="bike185" type="bike_bicycle" depart="454.97" departLane="best" from="133755126#8" to="186262687#4"/>
    <trip id="bike187" type="bike_bicycle" depart="459.89" departLane="best" from="-714381033" to="-135530186#8"/>
    <trip id="bike188" type="bike_bicycle" depart="462.34" departLane="best" from="173655938#0" to="-543878957"/>
    <trip id="bike189" type="bike_bicycle" depart="464.80" departLane="best" from="-306475946#1" to="706734275#3"/>
    <trip id="bike190" type="bike_bicycle" depart="467.26" departLane="best" from="186262687#7" to="-290646813"/>
    <trip id="bike191" type="bike_bicycle" depart="469.72" departLane="best" from="-306475943#1" to="-800610495#1"/>
    <trip id="bike193" type="bike_bicycle" depart="474.64" departLane="best" from="-171867136#4" to="-800610509#4"/>
    <trip id="bike194" type="bike_bicycle" depart="477.10" departLane="best" from="800669888" to="186250480#3"/>
    <trip id="bike197" type="bike_bicycle" depart="484.48" departLane="best" from="-122612356#0" to="-286438371#0"/>
    <trip id="bike198" type="bike_bicycle" depart="486.94" departLane="best" from="-800669878" to="171865792#8"/>
    <trip id="bike199" type="bike_bicycle" depart="489.40" departLane="best" from="173655926#0" to="-803758030"/>
    <trip id="bike200" type="bike_bicycle" depart="491.86" departLane="best" from="-803757988#0" to="-186258449"/>
    <trip id="bike202" type="bike_bicycle" depart="496.77" departLane="best" from="306475943#0" to="-171904519#1"/>
    <trip id="bike203" type="bike_bicycle" depart="499.23" departLane="best" from="-171865792#11" to="133637887#2"/>
    <trip id="bike204" type="bike_bicycle" depart="501.69" departLane="best" from="171902831#0" to="-706173403"/>
    <trip id="bike206" type="bike_bicycle" depart="506.61" departLane="best" from="186250480#1" to="-186258773#1"/>
    <trip id="bike207" type="bike_bicycle" depart="509.07" departLane="best" from="-186250797#1" to="-133637886"/>
    <trip id="bike209" type="bike_bicycle" depart="513.99" departLane="best" from="706734276#1" to="-158486424#2"/>
    <trip id="bike211" type="bike_bicycle" depart="518.91" departLane="best" from="-186250792#1" to="186254736#6"/>
    <trip id="bike212" type="bike_bicycle" depart="521.37" departLane="best" from="122612374#4" to="-186263433#0"/>
    <trip id="bike213" type="bike_bicycle" depart="523.83" departLane="best" from="173655926#1" to="-122612374#4"/>
    <trip id="bike214" type="bike_bicycle" depart="526.29" departLane="best" from="245441027#6" to="246989087#1"/>
    <trip id="bike215" type="bike_bicycle" depart="528.74" departLane="best" from="-171867126#6" to="-800669861"/>
    <trip id="bike216" type="bike_bicycle" depart="531.20" departLane="best" from="-173655926#5" to="803758023"/>
    <trip id="bike217" type="bike_bicycle" depart="533.66" departLane="best" from="133755117#3" to="-133755126#7"/>
    <trip id="bike218" type="bike_bicycle" depart="536.12" departLane="best" from="-236471187#0" to="706734275#3"/>
    <trip id="bike220" type="bike_bicycle" depart="541.04" departLane="best" from="173655938#4" to="805873582"/>
    <trip id="bike221" type="bike_bicycle" depart="543.50" departLane="best" from="171867127#0" to="803758015#0"/>
    <trip id="bike223" type="bike_bicycle" depart="548.42" departLane="best" from="186262687#6" to="133637487#5"/>
    <trip id="bike226" type="bike_bicycle" depart="555.80" departLane="best" from="-804207581" to="-236471194"/>
    <trip id="bike227" type="bike_bicycle" depart="558.26" departLane="best" from="-186263438#1" to="171902835#1"/>
    <trip id="bike228" type="bike_bicycle" depart="560.72" departLane="best" from="246989083#3" to="133755118#1"/>
    <trip id="bike229" type="bike_bicycle" depart="563.17" departLane="best" from="171870085#1" to="-246982751"/>
    <trip id="bike230" type="bike_bicycle" depart="565.63" departLane="best" from="-158486424#8" to="-286437949"/>
    <trip id="bike231" type="bike_bicycle" depart="568.09" departLane="best" from="-246982749#1" to="-306475947#1"/>
    <trip id="bike232" type="bike_bicycle" depart="570.55" departLane="best" from="133755127#0" to="-171870084#0"/>
    <trip id="bike233" type="bike_bicycle" depart="573.01" departLane="best" from="-186262687#2" to="186254736#3"/>
    <trip id="bike234" type="bike_bicycle" depart="575.47" departLane="best" from="186258462#1" to="-135530186#2"/>
    <trip id="bike235" type="bike_bicycle" depart="577.93" departLane="best" from="-800610496" to="133755127#1"/>
    <trip id="bike236" type="bike_bicycle" depart="580.39" departLane="best" from="-800610509#1" to="-186254736#3"/>
    <trip id="bike237" type="bike_bicycle" depart="582.85" departLane="best" from="-800610511" to="800610494"/>
    <trip id="bike238" type="bike_bicycle" depart="585.31" departLane="best" from="171865797#4" to="186254736#5"/>
    <trip id="bike239" type="bike_bicycle" depart="587.77" departLane="best" from="713329445#1" to="246989083#0"/>
    <trip id="bike240" type="bike_bicycle" depart="590.23" departLane="best" from="-800384387#0" to="-122612374#4"/>
    <trip id="bike242" type="bike_bicycle" depart="595.15" departLane="best" from="713329444#0" to="803758018"/>
    <trip id="bike243" type="bike_bicycle" depart="597.60" departLane="best" from="-800610509#4" to="236471195#1"/>
    <trip id="bike245" type="bike_bicycle" depart="602.52" departLane="best" from="-186258462#0" to="-186258457"/>
    <trip id="bike247" type="bike_bicycle" depart="607.44" departLane="best" from="-706173404#1" to="186250480#5"/>
    <trip id="bike248" type="bike_bicycle" depart="609.90" departLane="best" from="-800610493" to="-171902842#1"/>
    <trip id="bike249" type="bike_bicycle" depart="612.36" departLane="best" from="-803758036" to="-171867136#4"/>
    <trip id="bike250" type="bike_bicycle" depart="614.82" departLane="best" from="171870082" to="-133637887#1"/>
    <trip id="bike252" type="bike_bicycle" depart="619.74" departLane="best" from="-133637887#2" to="171902839#0"/>
    <trip id="bike254" type="bike_bicycle" depart="624.66" departLane="best" from="-133755126#7" to="-800384385"/>
    <trip id="bike255" type="bike_bicycle" depart="627.12" departLane="best" from="-186254736#9" to="-374529123#1"/>
    <trip id="bike256" type="bike_bicycle" depart="629.58" departLane="best" from="246982755#1" to="-800384385"/>
    <trip id="bike257" type="bike_bicycle" depart="632.03" departLane="best" from="245441027#7" to="706173404#2"/>
    <trip id="bike258" type="bike_bicycle" depart="634.49" departLane="best" from="-236471188#1" to="-171865789"/>
    <trip id="bike259" type="bike_bicycle" depart="636.95" departLane="best" from="-133637883#1" to="133755126#7"/>
    <trip id="bike261" type="bike_bicycle" depart="641.87" departLane="best" from="171902843#1" to="288926324#2"/>
    <trip id="bike263" type="bike_bicycle" depart="646.79" departLane="best" from="803758014" to="-186250797#0"/>
    <trip id="bike264" type="bike_bicycle" depart="649.25" departLane="best" from="-133637883#2" to="-171902835#1"/>
    <trip id="bike266" type="bike_bicycle" depart="654.17" departLane="best" from="158486424#7" to="-186258455#2"/>
    <trip id="bike267" type="bike_bicycle" depart="656.63" departLane="best" from="186258453" to="246989083#1"/>
    <trip id="bike268" type="bike_bicycle" depart="659.09" departLane="best" from="-171904518" to="171867131#0"/>
    <trip id="bike269" type="bike_bicycle" depart="661.55" departLane="best" from="245441027#1" to="-171867130#0"/>
    <trip id="bike271" type="bike_bicycle" depart="666.46" departLane="best" from="-171867127#0" to="-133637887#0"/>
    <trip id="bike272" type="bike_bicycle" depart="668.92" departLane="best" from="-306475944#1" to="186250480#3"/>
    <trip id="bike274" type="bike_bicycle" depart="673.84" departLane="best" from="186262687#15" to="-158486424#6"/>
    <trip id="bike275" type="bike_bicycle" depart="676.30" departLane="best" from="186254736#1" to="171870084#3"/>
    <trip id="bike276" type="bike_bicycle" depart="678.76" departLane="best" from="-171867126#0" to="246989092#0"/>
    <trip id="bike277" type="bike_bicycle" depart="681.22" departLane="best" from="706734276#2" to="171867127#3"/>
    <trip id="bike279" type="bike_bicycle" depart="686.14" departLane="best" from="290520225#1" to="-706734269"/>
    <trip id="bike280" type="bike_bicycle" depart="688.60" departLane="best" from="-800669876" to="-715685827"/>
    <trip id="bike281" type="bike_bicycle" depart="691.06" departLane="best" from="133637883#1" to="-706318004#1"/>
    <trip id="bike284" type="bike_bicycle" depart="698.43" departLane="best" from="171902835#1" to="706173403"/>
    <trip id="bike285" type="bike_bicycle" depart="700.89" departLane="best" from="186258773#0" to="-800669882"/>
    <trip id="bike287" type="bike_bicycle" depart="705.81" departLane="best" from="-245441809#1" to="306475946#4"/>
    <trip id="bike290" type="bike_bicycle" depart="713.19" departLane="best" from="-245441030" to="706734276#4"/>
    <trip id="bike291" type="bike_bicycle" depart="715.65" departLane="best" from="706173404#0" to="-171865792#2"/>
    <trip id="bike292" type="bike_bicycle" depart="718.11" departLane="best" from="800384387#3" to="-186263433#0"/>
    <trip id="bike293" type="bike_bicycle" depart="720.57" departLane="best" from="-803758032" to="171867135#1"/>
    <trip id="bike294" type="bike_bicycle" depart="723.03" departLane="best" from="-800384386" to="-133755117#0"/>
    <trip id="bike297" type="bike_bicycle" depart="730.41" departLane="best" from="-706318004#1" to="800384387#2"/>
    <trip id="bike298" type="bike_bicycle" depart="732.86" departLane="best" from="186258455#1" to="-246982755#1"/>
    <trip id="bike300" type="bike_bicycle" depart="737.78" departLane="best" from="-171865792#12" to="186262687#4"/>
    <trip id="bike302" type="bike_bicycle" depart="742.70" departLane="best" from="186254736#1" to="171902839#3"/>
    <trip id="bike304" type="bike_bicycle" depart="747.62" departLane="best" from="-171865797#10" to="-186258462#0"/>
    <trip id="bike307" type="bike_bicycle" depart="755.00" departLane="best" from="133755126#15" to="-800669861"/>
    <trip id="bike308" type="bike_bicycle" depart="757.46" departLane="best" from="236471196" to="-546663980"/>
    <trip id="bike310" type="bike_bicycle" depart="762.38" departLane="best" from="-236471188#0" to="-171867132"/>
    <trip id="bike311" type="bike_bicycle" depart="764.84" departLane="best" from="-186250480#5" to="-171867131#2"/>
    <trip id="bike312" type="bike_bicycle" depart="767.29" departLane="best" from="133755126#5" to="246982751"/>
    <trip id="bike313" type="bike_bicycle" depart="769.75" departLane="best" from="-173655938#5" to="-186258455#0"/>
    <trip id="bike314" type="bike_bicycle" depart="772.21" departLane="best" from="-812556708" to="186262687#9"/>
    <trip id="bike315" type="bike_bicycle" depart="774.67" departLane="best" from="804207581" to="133755118#5"/>
    <trip id="bike316" type="bike_bicycle" depart="777.13" departLane="best" from="-246989092#1" to="-171865797#8"/>
    <trip id="bike317" type="bike_bicycle" depart="779.59" departLane="best" from="-186250792#0" to="-186262687#10"/>
    <trip id="bike318" type="bike_bicycle" depart="782.05" departLane="best" from="-173655932#1" to="-133637487#3"/>
    <trip id="bike319" type="bike_bicycle" depart="784.51" departLane="best" from="133755126#3" to="-246982749#2"/>
    <trip id="bike320" type="bike_bicycle" depart="786.97" departLane="best" from="804207578#0" to="135530186#2"/>
    <trip id="bike321" type="bike_bicycle" depart="789.43" departLane="best" from="186258449" to="-171867136#2"/>
    <trip id="bike322" type="bike_bicycle" depart="791.89" departLane="best" from="720452476" to="122612356#0"/>
    <trip id="bike323" type="bike_bicycle" depart="794.35" departLane="best" from="800384380" to="171865792#11"/>
    <trip id="bike324" type="bike_bicycle" depart="796.81" departLane="best" from="-804207571" to="-800715313"/>
    <trip id="bike325" type="bike_bicycle" depart="799.27" departLane="best" from="-173655938#5" to="-133755126#8"/>
    <trip id="bike326" type="bike_bicycle" depart="801.72" departLane="best" from="800715313" to="-805873582"/>
    <trip id="bike328" type="bike_bicycle" depart="806.64" departLane="best" from="-158486424#4" to="171870086#0"/>
    <trip id="bike329" type="bike_bicycle" depart="809.10" departLane="best" from="-133755127#1" to="-171902831#0"/>
    <trip id="bike331" type="bike_bicycle" depart="814.02" departLane="best" from="812556707#1" to="-171867131#1"/>
    <trip id="bike332" type="bike_bicycle" depart="816.48" departLane="best" from="246989083#2" to="171867130#3"/>
    <trip id="bike333" type="bike_bicycle" depart="818.94" departLane="best" from="306475941#0" to="-186262687#0"/>
    <trip id="bike334" type="bike_bicycle" depart="821.40" departLane="best" from="133755118#5" to="-803758015#1"/>
    <trip id="bike335" type="bike_bicycle" depart="823.86" departLane="best" from="-803757988#1" to="714381034"/>
    <trip id="bike337" type="bike_bicycle" depart="828.78" departLane="best" from="171870081#1" to="171867132"/>
    <trip id="bike339" type="bike_bicycle" depart="833.70" departLane="best" from="-186254736#5" to="-186254736#7"/>
    <trip id="bike340" type="bike_bicycle" depart="836.15" departLane="best" from="173655926#6" to="-171902839#0"/>
    <trip id="bike341" type="bike_bicycle" depart="838.61" departLane="best" from="-173655926#3" to="-158486424#5"/>
    <trip id="bike342" type="bike_bicycle" depart="841.07" departLane="best" from="-122612374#0" to="-803758015#1"/>
    <trip id="bike343" type="bike_bicycle" depart="843.53" departLane="best" from="171867126#6" to="-288926324#2"/>