<?xml version="1.0" encoding="UTF-8"?>

<!-- generated on Thu Dec 24 17:38:29 2020 by Eclipse SUMO duarouter Version 1.7.0
<configuration xmlns:xsi="http://www.w3.org/2001/XMLSchema-instance" xsi:noNamespaceSchemaLocation="http://sumo.dlr.de/xsd/duarouterConfiguration.xsd">

    <input>
        <net-file value="/home/shashwath/Sumo/2020-12-24-17-38-13/osm.net.xml"/>
        <additional-files value="/home/shashwath/Sumo/2020-12-24-17-38-13/osm_stops.add.xml,/home/shashwath/Sumo/2020-12-24-17-38-13/osm_pt.rou.xml"/>
        <route-files value="/home/shashwath/Sumo/2020-12-24-17-38-13/osm.pedestrian.trips.xml"/>
    </input>

    <output>
        <output-file value="/home/shashwath/Sumo/2020-12-24-17-38-13/osm.pedestrian.rou.xml"/>
        <alternatives-output value="/home/shashwath/Sumo/2020-12-24-17-38-13/osm.pedestrian.rou.alt.xml"/>
    </output>

    <time>
        <begin value="0"/>
        <end value="3600"/>
    </time>

    <report>
        <no-warnings value="true"/>
        <ignore-errors value="true"/>
        <no-step-log value="true"/>
    </report>

</configuration>
-->

<routes xmlns:xsi="http://www.w3.org/2001/XMLSchema-instance" xsi:noNamespaceSchemaLocation="http://sumo.dlr.de/xsd/routes_file.xsd">
    <vType id="ped_pedestrian" vClass="pedestrian"/>
    <person id="ped0" type="ped_pedestrian" depart="0.00">
        <walk edges="171902842#0 158486424#2 158486424#3 158486424#4 158486424#5 158486424#6 246982749#0 246982749#1 246982749#2 -171870084#3 -171870084#2 -171870084#1 -171870084#0 -803758021 -286438371#0 286437949 133637883#2 -133637884 -186250480#3 -186250480#4 -133637887#0"/>
    </person>
    <person id="ped1" type="ped_pedestrian" depart="1.46">
        <walk edges="-246989083#1 -246989083#2 -246989092#0 800610512 -246989087#0 171867135#1 171865797#0 -171865797#1 -171865797#2 -171865797#3 -171865797#4 -171865797#5 -171865797#6 -171865797#7 -171865797#8 -236471196 288926324#0 288926324#1 288926324#2 288926324#3 288926324#4 288926324#5 706734274#0 -186262687#0 -186262687#1"/>
    </person>
    <person id="ped2" type="ped_pedestrian" depart="2.91">
        <walk edges="236471195#0 236471188#0 236471188#1 288926324#0 288926324#1 288926324#2 288926324#3 288926324#4 288926324#5 706734276#2 171867126#7 171902839#4 171902839#3 171902839#2 171902839#1 171902839#0 -158486424#3 158486424#4 158486424#5 158486424#6 246982749#0 246982749#1 246982749#2 -171870084#3 -171870084#2 -171870084#1 -171870084#0 -803758021 -286438371#0 286437949 133637883#2 -133637884 -186250480#3 -186250480#4 -186250480#5 -186250792#1 -173655926#3 -173655926#2 186250798"/>
    </person>
    <person id="ped4" type="ped_pedestrian" depart="5.82">
        <walk edges="-800669875 800384387#0 -800384388 171865797#8 -171865797#7 -171865797#6 -171865797#5 -171865797#4 -171865797#3 -171865797#2 -171865797#1 -171865797#0 -171867135#1 -171867135#0 -715685826#0 800610509#4 800610509#3 306475945 186258462#1 186258462#0 133755126#14 133755126#13 133755126#11 133755126#10 133755126#9 133755126#8 133755126#7 133755126#6 133755126#5 133755126#4 133755126#3 133755124 -133755133#1 -133755133#2 -133755117#2"/>
    </person>
    <person id="ped5" type="ped_pedestrian" depart="7.28">
        <walk edges="-186258462#1 -306475945 800610509#3 800610509#4 -715685826#0 -171867135#0 -171867135#1 -171865797#0 -171865797#1 -171865797#2 -171865797#3 -171865797#4 -171865797#5 -171865797#6 -171865797#7 -171865797#8 -236471196 288926324#0 288926324#1 288926324#2 288926324#3 288926324#4 288926324#5 706734276#2 171867126#7 171902839#4 171902839#3 171902839#2 171902839#1 171902839#0 -158486424#3 158486424#4 158486424#5 158486424#6 246982749#0 246982749#1 246982749#2 -171870084#3 -171870084#2 -171870084#1 -171870084#0 -803758021 -286438371#0 286437949 133637883#2 -133637884 -186250480#3 -186250480#4 -133637887#0 133637887#0"/>
    </person>
    <person id="ped6" type="ped_pedestrian" depart="8.73">
        <walk edges="-133637887#1 133637887#2" busStop="3779293984"/> <!-- Laxmindra Nagar Bus Stop -->
        <walk edges="186250799#0 -186250799#0"/>
    </person>
    <person id="ped7" type="ped_pedestrian" depart="10.19">
        <walk edges="173655926#3 -186250792#1 -186250480#5 -186250480#4 -186250480#3 -133637884 133637883#2 286437949 286438372 135530186#6 135530186#5 135530186#4 135530186#3 135530186#2"/>
    </person>
    <person id="ped8" type="ped_pedestrian" depart="11.64">
        <walk edges="-186258773#1 133755126#15 -186258462#0 -186258462#1 -306475945 800610509#3 800610509#4 -715685826#0 -171867135#0 -171867135#1 -171865797#0 -171865797#1 -171865797#2 -171865797#3 171865797#4 171865797#5 171865797#6 -171867131#2 -171867131#1 171867127#0 171867127#1"/>
    </person>
    <person id="ped9" type="ped_pedestrian" depart="13.10">
        <walk edges="374529123#1 -171870084#1 -171870084#0 -803758021 -286438371#0 -286437949 -133637883#4 133637885 186250480#0 -133637484#0"/>
    </person>
    <person id="ped10" type="ped_pedestrian" depart="14.55">
        <walk edges="306475951 -158486424#4 -158486424#3 171902839#0 171902839#1 171902839#2 171902839#3 171902839#4 171867126#7 706734276#2 288926324#5 288926324#4 288926324#3 288926324#2 288926324#1 288926324#0 -236471196 -171865797#8 -171865797#7 -171865797#6 -171865797#5 -171865797#4 -171865797#3 -171865797#2 -171865797#1 -171865797#0 -171867135#1 -171867135#0 -715685826#0 800610509#4 800610509#3 -306475945 -186258462#1 -186258462#0 -133755126#14 -133755126#13 186258773#0"/>
    </person>
    <person id="ped11" type="ped_pedestrian" depart="16.01">
        <walk edges="-706318012 543879349#1 -133755127#1 133755127#0 133755118#4 133755118#3 706318011 186254733#0 -133755126#7 -133755126#8 133755126#9 133755126#10 133755126#11 133755126#13 133755126#14 186258462#0 186258462#1 306475945 800610509#3 800610509#4 -715685826#0 -171867135#0 -171867135#1 -171865797#0 -171865797#1 -171865797#2 -171865797#3 -171865797#4 -171865797#5 -171865797#6 -171865797#7 -171865797#8 -236471196 288926324#0 288926324#1 288926324#2 288926324#3 288926324#4 288926324#5 706734276#2 171867126#7 171902839#4 171902839#3 171902839#2 -171902839#1"/>
    </person>
    <person id="ped12" type="ped_pedestrian" depart="17.46">
        <walk edges="803758021 803758022 171870084#1 171870084#2 -171870086#1 171870085#0 171870085#1 -158486424#7 -158486424#6 -158486424#5 -158486424#4 -158486424#3 171902839#0 171902839#1 171902839#2 171902839#3 171902839#4 171867126#7 706734276#2 288926324#5 288926324#4 288926324#3 288926324#2 288926324#1 288926324#0 -236471196 -171865797#8 -171865797#7 -171865797#6 -171865797#5 -171865797#4 -171865797#3 -171865797#2 -171865797#1 -171865797#0 -171867135#1 -171867135#0 -715685826#0 800610509#4 800610509#3 306475945 186258462#1 186258462#0 133755126#14 -706318004#0 -706318005"/>
    </person>
    <person id="ped13" type="ped_pedestrian" depart="18.92">
        <walk edges="-171865797#11 171865797#11 171865797#10 171865797#8 -171865797#7 -171865797#6 -171865797#5"/>
    </person>
    <person id="ped14" type="ped_pedestrian" depart="20.37">
        <walk edges="706734275#3 706734275#2 706734275#1 706734275#0 706734276#4 -171867136#0 -171867136#1 171867136#2"/>
    </person>
    <person id="ped15" type="ped_pedestrian" depart="21.83">
        <walk edges="364433566 186263438#1 290625965 186263433#2 -706734275#1 -706734275#0 706734276#1 -288926324#5 -288926324#4 -288926324#3 -288926324#2 -288926324#1 288926324#0 236471188#1"/>
    </person>
    <person id="ped16" type="ped_pedestrian" depart="23.28">
        <walk edges="133755133#0 -133755117#0 133755126#1 133755126#2 133755126#3 133755126#4 133755126#5 133755126#6 133755126#7 133755126#8 133755126#9 133755126#10 133755126#11 133755126#13 133755126#14 186258462#0 186258462#1 306475945 800610509#3 800610509#4 -715685826#0 -171867135#0 -171867135#1 -171865797#0 -171865797#1 -171865797#2 -171865797#3 -171865797#4 -171865797#5 -171865797#6 -171865797#7 -171865797#8 -236471196 288926324#0 288926324#1 288926324#2 288926324#3 288926324#4 288926324#5 706734276#2 171867126#7 171902839#4 171902839#3 171902839#2 171902839#1 171902839#0 -158486424#3 158486424#4 158486424#5 158486424#6 246982749#0 246982749#1 246982749#2 -171870084#3 -171870084#2 -171870084#1 -171870084#0 -803758021 -286438371#0 286437949 133637883#2 -133637884 -186250480#3 804207575"/>
    </person>
    <person id="ped17" type="ped_pedestrian" depart="24.74">
        <walk edges="-800384387#5 -800384387#3 -800384387#2 -800384387#1 -800384387#0 800384388 236471196 288926324#0 288926324#1 288926324#2 288926324#3 288926324#4 288926324#5 706734276#2 171867126#7 171902839#4 171902839#3 171902841#1 171902841#0 -171902835#4 158486424#1"/>
    </person>
    <person id="ped18" type="ped_pedestrian" depart="26.19">
        <walk edges="706173405#0 -706173403 133755118#1 186254734 -133755126#5 133755126#6 133755126#7 133755126#8 133755126#9 133755126#10 133755126#11 133755126#13 133755126#14 186258462#0 186258462#1 306475945 800610509#3 800610509#4 -715685826#0 -171867135#0 -171867135#1 -171865797#0 -171865797#1 -171865797#2 -171865797#3 -171865797#4 -171865797#5 -171865797#6 -171865797#7 -171865797#8 -236471196 288926324#0 288926324#1 288926324#2 288926324#3 288926324#4 288926324#5 706734276#2 171867126#7 171902839#4 171902839#3 171902839#2 171902839#1 171902839#0 -158486424#3 -158486424#4 -158486424#5 -158486424#6 -158486424#7 171870085#1"/>
    </person>
    <person id="ped19" type="ped_pedestrian" depart="27.65">
        <walk edges="714381033 713329442 186258462#1 306475945 800610509#3 800610509#4 -715685826#0 -171867135#0 -171867135#1 -171865797#0 -171865797#1 -171865797#2 -171865797#3 171865797#4 171865797#5"/>
    </person>
    <person id="ped20" type="ped_pedestrian" depart="29.10">
        <walk edges="186262687#12 -290646813 -186262687#15 -800669879 290646812#1 613492737 236471188#1 -236471196 -171865797#8 -171865797#7 -171865797#6 -171865797#5 -171865797#4 -171865797#3 -171865797#2 -171865797#1 -171865797#0 -171867135#1 -171867135#0 -715685826#0 800610509#4 800610509#3 306475945 186258462#1 186258462#0 133755126#14 133755126#13 133755126#11 133755126#10 133755126#9 133755126#8 133755126#7 133755126#6 133755126#5 133755126#4 -133755126#3"/>
    </person>
    <person id="ped21" type="ped_pedestrian" depart="30.56">
        <walk edges="-186262687#15 -186262687#14 290625964 288926324#3 -288926324#4 -288926324#5"/>
    </person>
    <person id="ped22" type="ped_pedestrian" depart="32.01">
        <walk edges="-171865787 -171865792#7 -171865792#8 -171865792#10 -171865792#11 -171865792#12 171867127#2 171867127#1 171867127#0 -171867131#1 -171867131#2 -171865797#7 -171865797#8 -236471196 236471188#1 613492737 290646812#1 -800669879 -186262687#15 -290646813 613492733 -186262687#8"/>
    </person>
    <person id="ped23" type="ped_pedestrian" depart="33.47">
        <walk edges="-171867126#0 -171867126#1 -171867126#2 -171867126#4 -171867126#5 -171867126#6 -171867126#7 706734276#2 288926324#5 288926324#4 288926324#3 288926324#2 288926324#1 288926324#0 -236471196 -171865797#8 -171865797#7 -171865797#6 -171865797#5 -171865797#4 -171865797#3 -171865797#2 -171865797#1 171865797#0 171867135#1 -246989087#0"/>
    </person>
    <person id="ped24" type="ped_pedestrian" depart="34.92">
        <walk edges="171902839#3 171902839#4 171867126#7 706734276#2 288926324#5 288926324#4 288926324#3 288926324#2 288926324#1 288926324#0 -236471196 -171865797#8 -171865797#7 -171865797#6 -171865797#5 -171865797#4 -171865797#3 -171865797#2 -171865797#1 -171865797#0 -171867135#1 -171867135#0 -715685826#1 -715685827"/>
    </person>
    <person id="ped25" type="ped_pedestrian" depart="36.38">
        <walk edges="-800384381 246989083#2 246989092#0 800610512 -246989087#0 -171867135#0 -715685826#0 800610509#4 800610509#3 306475945 186258462#1 713329442 -306475947#2 306475947#1 306475947#0 713329440 -713329439 186254736#8 186254736#9 -186254736#9"/>
    </person>
    <person id="ped26" type="ped_pedestrian" depart="37.83">
        <walk edges="-245441809#1 -245441809#0 -173655926#7 -186250796" busStop="3779293984"/> <!-- Laxmindra Nagar Bus Stop -->
        <walk edges="133637887#2 -133637883#0 -133637883#1 133637883#2 286437949 286438371#0 803758021 803758022 171870084#1 171870084#2 -171870086#1 171870085#0 171870085#1 -158486424#8 -171867130#0 800669882"/>
    </person>
    <person id="ped27" type="ped_pedestrian" depart="39.29">
        <walk edges="173655926#1 173655926#2 -173655926#3 -186250792#1 -186250480#5 -186250480#4 -186250480#3 -133637884 133637883#2 286437949 286438372 135530186#6 135530186#5 135530186#4 135530186#3 -135530186#2 171870076#0 171870076#1 171870075#0"/>
    </person>
    <person id="ped28" type="ped_pedestrian" depart="40.74">
        <walk edges="-173655926#2 -173655926#3 -186250792#1 -186250480#5 -186250480#4 -186250480#3 -133637884 133637883#2 286437949 -286438371#0 -803758021 -171870084#0 -171870084#1 -171870084#2 -171870084#3 246982749#2 246982749#1 246982749#0 158486424#6 158486424#5 158486424#4 -158486424#3 171902839#0 171902839#1 171902839#2 171902839#3 171902839#4 171867126#7 706734276#2 288926324#5 288926324#4 288926324#3 288926324#2 288926324#1 288926324#0 236471188#1 236471188#0"/>
    </person>
    <person id="ped29" type="ped_pedestrian" depart="42.20">
        <walk edges="-171902843#0 171867126#6 171867126#7 706734276#2 288926324#5 288926324#4 288926324#3 288926324#2 288926324#1 288926324#0 -236471196 -800384388"/>
    </person>
    <person id="ped30" type="ped_pedestrian" depart="43.65">
        <walk edges="809425539 245441027#2 245441027#1 245441027#0 173655926#7 -186250796" busStop="3779293984"/> <!-- Laxmindra Nagar Bus Stop -->
        <walk edges="133637887#2 -133637883#0 -133637883#1 133637883#2 286437949 -286438371#0 -803758021 -171870084#0 -171870084#1 -171870084#2 -171870084#3 246982749#2 246982749#1 246982749#0 158486424#6 158486424#5 158486424#4 158486424#3 158486424#2 -171902842#0 171902842#1"/>
    </person>
    <person id="ped31" type="ped_pedestrian" depart="45.11">
        <walk edges="158486424#7 -158486424#6 -158486424#5 -158486424#4 -158486424#3 171902839#0 171902839#1 171902839#2 171902839#3 171902839#4 171867126#7 706734276#2 288926324#5 288926324#4 288926324#3 288926324#2 288926324#1 288926324#0 -236471196 -171865797#8 -171865797#7 -171865797#6 -171865797#5 -171865797#4 -171865797#3 -171865797#2 -171865797#1 -171865797#0 -171867135#1 -171867135#0 -715685826#0 800610509#4 800610509#3 306475945 186258462#1 713329442 -306475947#2 -306475947#1 -306475947#0 -306475946#4 -186258452 186254736#5"/>
    </person>
    <person id="ped32" type="ped_pedestrian" depart="46.56">
        <walk edges="706734274#1 186262687#0 186262688#0 186262688#1 186262688#2 186262687#6 186262687#7 186262687#8 613492733 -290646813 290520227 290520225#2"/>
    </person>
    <person id="ped33" type="ped_pedestrian" depart="48.02">
        <walk edges="-186262687#2 -186262687#4 -186262687#5 -186262687#6 -186262687#7 -186262687#8 613492733 -290646813 -186262687#15 -800669879 290646812#1 613492737 236471188#1 -236471196 -171865797#8 -171865797#7 -171865797#6 -171865797#5 -171865797#4 -171865797#3 -171865797#2 -171865797#1 -171865797#0 -171867135#1 -171867135#0 -715685826#0 800610509#4 800610509#3 306475945 186258462#1 186258462#0 133755126#14 133755126#13 133755126#11 133755126#10 133755126#9 133755126#8 133755126#7 133755126#6 -133755126#5 -186254734 -133755118#1"/>
    </person>
    <person id="ped34" type="ped_pedestrian" depart="49.47">
        <walk edges="-306475947#2 713329442 186258462#1 306475945 800610509#3 800610509#4 -715685826#0 -171867135#0 -171867135#1 -171865797#0 -171865797#1 -171865797#2 -171865797#3 -171865797#4 -171865797#5 -171865797#6 -171865797#7 -171865797#8 -236471196 288926324#0 288926324#1 288926324#2 288926324#3 288926324#4 288926324#5 706734276#2 171867126#7 171902839#4 171902839#3 171902839#2 171902839#1 171902839#0 -158486424#3 -158486424#4 -158486424#5 -158486424#6 -246982749#0"/>
    </person>
    <person id="ped35" type="ped_pedestrian" depart="50.93">
        <walk edges="-186258452 -306475946#4 -306475947#0 -306475947#1 -306475947#2 713329442 186258462#1 306475945 800610509#3 800610509#4 -715685826#0 -171867135#0 -171867135#1 -171865797#0 -171865797#1 -171865797#2 -171865797#3 -171865797#4 -171865797#5 -171865797#6 -171865797#7 -171865797#8 -236471196 288926324#0 288926324#1 288926324#2 288926324#3 288926324#4 288926324#5 706734276#2 706734276#3 171867136#0 171867136#1 800715314"/>
    </person>
    <person id="ped36" type="ped_pedestrian" depart="52.38">
        <walk edges="800384382 -171865792#2 -171865779 -171865797#0 -171867135#1 -171867135#0 -715685826#0 800610509#4 800610509#3 306475945 186258462#1 713329442 -306475947#2 -306475947#1"/>
    </person>
    <person id="ped39" type="ped_pedestrian" depart="56.75">
        <walk edges="-245441030 800610509#1 800610509#2 800610509#3 800610509#4 -715685826#0 -171867135#0 -171867135#1 -171865797#0 -171865797#1 -171865797#2 -171865797#3 -171865797#4 -171865797#5 -171865797#6 -171865797#7 -171865797#8 -236471196 288926324#0 288926324#1 288926324#2 288926324#3 288926324#4 236471190 -236471187#0"/>
    </person>
    <person id="ped40" type="ped_pedestrian" depart="58.20">
        <walk edges="171865789 171865792#8 171865792#10 -171865792#11 -171865792#12 171867127#2 171867127#1 171867127#0 -171867131#1 -171867131#2 -171865797#7 -171865797#8 -236471196 288926324#0 288926324#1 288926324#2 288926324#3 288926324#4 288926324#5 706734276#2 171867126#7 171902839#4 171902839#3 171902839#2 171902839#1 171902839#0 -158486424#3 158486424#4 158486424#5 158486424#6 246982749#0 246982749#1 246982749#2 -171870084#3 -171870084#2 -171870084#1 -171870084#0 -803758021 -286438371#0 286437949 133637883#2 -133637883#1 -133637883#0 133637887#2" busStop="3779293984"/> <!-- Laxmindra Nagar Bus Stop -->
        <walk edges="-186250796 173655926#7 245441027#0 245441027#1 245441027#2 245441027#4 245441027#5 -245441027#6"/>
    </person>
    <person id="ped42" type="ped_pedestrian" depart="61.11">
        <walk edges="-800610493 -171902837#0 -171902837#1 -171902839#4 171867126#7 706734276#2 288926324#5 288926324#4 288926324#3 288926324#2 288926324#1 288926324#0 -236471196 -171865797#8 -171865797#7 -171865797#6 -171865797#5 -171865797#4 -171865797#3 -171865797#2 -171865797#1 -171865797#0 -171867135#1 -171867135#0 -715685826#0 800610509#4 800610509#3 -306475945 -186258462#1"/>
    </person>
    <person id="ped43" type="ped_pedestrian" depart="62.57">
        <walk edges="817230302 -706734275#0 706734276#1 -288926324#5 -288926324#4 -288926324#3 -288926324#2 -288926324#1 -288926324#0 -236471196 -171865797#8 -171865797#7 -171865797#6 -171865797#5 -171865797#4 -171865797#3 -171865797#2 -171865797#1 -171865797#0 -171867135#1 -171867135#0 -715685826#0 800610509#4 800610509#3 306475945 186258462#1 186258462#0 133755126#14 133755126#13 133755126#11 133755126#10 133755126#9 133755126#8 133755126#7 133755126#6 133755126#5 133755126#4 133755126#3 133755126#2 133755126#1 -133755117#0 133755117#1"/>
    </person>
    <person id="ped44" type="ped_pedestrian" depart="64.02">
        <walk edges="-171865797#1 -171865797#0 -171867135#1 -171867135#0 -715685826#0 800610509#4 800610509#3 306475945 186258462#1 186258462#0 133755126#14 133755126#13 133755126#11 133755126#10 133755126#9 133755126#8 133755126#7 133755126#6 -133755126#5"/>
    </person>
    <person id="ped45" type="ped_pedestrian" depart="65.48">
        <walk edges="-171867127#3 -171867127#2 -171867127#1 -171867127#0 171867131#1 171867131#2 171865797#7 171865797#8 -236471196 288926324#0 288926324#1 288926324#2 288926324#3 288926324#4 288926324#5 706734276#2 -171867126#7 -706734274#2 171902835#0 171902835#1"/>
    </person>
    <person id="ped46" type="ped_pedestrian" depart="66.93">
        <walk edges="306475943#1 306475943#2 804217356#9 804217356#11 804207589#1 817117729#1 -133755126#0 133755126#1 133755126#2 133755126#3 133755126#4 133755126#5 133755126#6 133755126#7 133755126#8 133755126#9 133755126#10 133755126#11 133755126#13 133755126#14 186258462#0 186258462#1 306475945 800610509#3 800610509#4 -715685826#0 -171867135#0 -171867135#1 -171865797#0 -171865797#1 -171865797#2 -171865797#3 -171865797#4 -171865797#5 -171865797#6 -171865797#7 171865797#8 -800384388 800384387#0 -800669875"/>
    </person>
    <person id="ped47" type="ped_pedestrian" depart="68.39">
        <walk edges="-135530186#2 171870076#0 171870076#1 171870075#0 246982749#2 246982749#1 246982749#0 158486424#6 158486424#5 158486424#4 -158486424#3 171902839#0 171902839#1 171902839#2 171902839#3 171902839#4 171867126#7 706734276#2 288926324#5 288926324#4 288926324#3 288926324#2 288926324#1 288926324#0 236471196 800384388 -800384387#0 -800384387#1 -800384387#2 -800384390#1 -800384390#0"/>
    </person>
    <person id="ped48" type="ped_pedestrian" depart="69.84">
        <walk edges="812556709 -804207578#1 245441027#7 245441027#6 245441027#5 245441027#4 245441027#2 245441027#1 245441027#0 173655926#7 -186250796" busStop="3779293984"/> <!-- Laxmindra Nagar Bus Stop -->
        <walk edges="133637887#2 -133637883#0 -133637883#1 133637883#2 286437949 -286438371#0 -803758021 -171870084#0 -171870084#1 -171870084#2 -171870084#3 246982749#2 246982749#1 246982749#0 158486424#6 158486424#5 158486424#4 -158486424#3 171902839#0 171902839#1 171902839#2 171902839#3 171902839#4 171867126#7 706734276#2 288926324#5 288926324#4 288926324#3 288926324#2 288926324#1 288926324#0 -236471196 -171865797#8 -171865797#7 -171865797#6 -171865797#5 -171865797#4 -171865797#3 -171865797#2 -171865797#1 -171865797#0 -171867135#1 -171867135#0 -715685826#0 800610509#4 800610509#3 306475945 186258462#1 186258462#0 133755126#14 133755126#13 133755126#11 133755126#10 133755126#9 133755126#8 133755126#7 133755126#6 133755126#5"/>
    </person>
    <person id="ped50" type="ped_pedestrian" depart="72.76">
        <walk edges="-133637487#0 -133637487#1 -133637484#0 186250480#0 133637885 -133637883#4 -286437949 -286438371#0 -803758021 -171870084#0 -171870084#1 -171870084#2 -171870084#3 246982749#2 246982749#1 246982749#0 158486424#6 158486424#5 158486424#4 -158486424#3 171902839#0 171902839#1 171902839#2 171902839#3 171902839#4 171867126#7 706734276#3 706734276#4 706734275#0 -706734275#1 186263433#2 186263433#1 186263433#0"/>
    </person>
    <person id="ped51" type="ped_pedestrian" depart="74.21">
        <walk edges="186254736#1 -706318010 133755126#8 133755126#7 133755126#6 133755126#5 133755126#4 133755126#3 133755124 133755133#1"/>
    </person>
    <person id="ped52" type="ped_pedestrian" depart="75.67">
        <walk edges="-245441809#1 -245441809#0 -173655926#7 -186250796" busStop="3779293984"/> <!-- Laxmindra Nagar Bus Stop -->
        <walk edges="133637887#2 -133637883#0 -133637883#1 133637883#2 286437949 -286438371#0 -803758021 -171870084#0 -171870084#1 -171870084#2 -171870084#3 246982749#2 246982749#1 246982749#0 158486424#6 158486424#5 158486424#4 158486424#3 158486424#2 -171902835#4 -171902835#3 171902837#0 171902843#0"/>
    </person>
    <person id="ped53" type="ped_pedestrian" depart="77.12">
        <walk edges="-171867129 171865797#4 171865797#5 -171865797#6 -171865797#7 -171865797#8 -236471196 288926324#0 288926324#1 288926324#2 288926324#3 288926324#4 288926324#5 706734276#2 171867126#7 171902839#4 171902839#3 171902839#2 -800715314"/>
    </person>
    <person id="ped54" type="ped_pedestrian" depart="78.58">
        <walk edges="-803758026#1 245441027#1 245441027#0 173655926#7 173655926#6 -186250799#0" busStop="3779281661"/> <!-- Laxmindra Nagara -->
        <walk edges="133637887#1 -186250480#4 -804207575 803758015#1 -133637487#4 -133637487#3 -803758017 803758017"/>
    </person>
    <person id="ped55" type="ped_pedestrian" depart="80.03">
        <walk edges="800384382 -171865792#3 -171865792#5 -171865792#7 -171865792#8 -171865792#10 -171865792#11 -171865792#12 171867127#2 171867127#1 171867127#0 -171867131#1 -171867131#2 -171865797#7 -171865797#8 -236471196 288926324#0 288926324#1 288926324#2 288926324#3 288926324#4 288926324#5 706734276#2 171867126#7 171902839#4 171902839#3 171902839#2 171902839#1 171902839#0 -158486424#3 158486424#4 158486424#5 158486424#6 246982749#0 246982749#1 246982749#2 -171870084#3 -171870084#2 -171870084#1 -171870084#0 -803758021 -286438371#0 286437949 133637883#2 -133637883#1 -133637883#0 133637887#2" busStop="3779293984"/> <!-- Laxmindra Nagar Bus Stop -->
        <walk edges="-186250796 173655926#7 245441027#0 245441027#1 245441027#2 245441027#4 245441027#5 -245441027#6 -245441027#7"/>
    </person>
    <person id="ped56" type="ped_pedestrian" depart="81.49">
        <walk edges="133637883#2 -133637884 -186250480#3 -186250480#4 -186250480#5 -186250792#1 -173655926#3 173655926#2 173655926#1 173655938#5 173655938#4 173655938#3 173655938#2 -173655938#1"/>
    </person>
    <person id="ped58" type="ped_pedestrian" depart="84.40">
        <walk edges="-306475941#0 -306475941#1 -306475941#2 804217356#8 804217356#9 804217356#11 804207589#1 817117729#1 -133755126#0 133755126#1 133755126#2 133755126#3 133755126#4 133755126#5 133755126#6 133755126#7 133755126#8 133755126#9 133755126#10 133755126#11 133755126#13 133755126#14 186258462#0 186258462#1 306475945 800610509#3 800610509#4 -715685826#0 -171867135#0 -171867135#1 -171865797#0 -171865797#1 -171865797#2 -171865797#3 -171865797#4 -171865797#5 -171865797#6 -171865797#7 -171865797#8 -236471196 288926324#0 288926324#1 288926324#2 288926324#3 288926324#4 288926324#5 706734276#2 171867126#7 171902839#4 -171902839#3 -171902841#1 -171902841#0 171902835#4 171902842#0"/>
    </person>
    <person id="ped59" type="ped_pedestrian" depart="85.85">
        <walk edges="171870075#0 246982749#2 246982749#1 246982749#0 158486424#6 158486424#5 158486424#4 158486424#3 158486424#2 -171902835#4 -171902835#3 -171902837#0"/>
    </person>
    <person id="ped61" type="ped_pedestrian" depart="88.76">
        <walk edges="290625965 186263433#2 -706734275#1 -706734275#0 706734276#1 -288926324#5 -288926324#4 -288926324#3 -288926324#2 -288926324#1 -288926324#0 -236471196 -171865797#8 -171865797#7 -171865797#6 -171865797#5 -171865797#4 -171865797#3 -171865797#2 -171865797#1 -171865797#0 -171867135#1 -171867135#0 -715685826#0 800610509#4 800610509#3 306475945 186258462#1 186258462#0 133755126#14 133755126#13 133755126#11 133755126#10 133755126#9 133755126#8 133755126#7"/>
    </person>
    <person id="ped62" type="ped_pedestrian" depart="90.22">
        <walk edges="-122612356#0 -122612374#0 706734275#3 706734275#2 706734275#1 706734275#0 706734276#1 -288926324#5 -288926324#4 -288926324#3 -288926324#2 -288926324#1 -288926324#0 -236471196 -171865797#8 -171865797#7 -171865797#6 -171865797#5 -171865797#4 -171865797#3 -171865797#2 -171865797#1 -171865797#0 -171867135#1 -171867135#0 -715685826#0 800610509#4 800610509#3 306475945 186258462#1 186258462#0 133755126#14 133755126#13 133755126#11 133755126#10 133755126#9 -133755126#8 -133755126#7 186254733#0 706318011 133755118#3 -133755118#4 -588939865 -374530997#1"/>
    </person>
    <person id="ped63" type="ped_pedestrian" depart="91.67">
        <walk edges="-133637883#1 133637883#2 286437949 -286438371#0 -803758021 -171870084#0 -171870084#1 -171870084#2 -171870084#3 246982749#2 246982749#1 246982749#0 158486424#6 158486424#5 158486424#4 -158486424#3 171902839#0 171902839#1 171902839#2 171902839#3 171902839#4 171867126#7 706734276#2 288926324#5 288926324#4 288926324#3 288926324#2 288926324#1 288926324#0 -236471196 -800384388 800384387#0 -800669875 800669875"/>
    </person>
    <person id="ped64" type="ped_pedestrian" depart="93.13">
        <walk edges="800384385 171865792#11 -171865792#10 -171865792#8 -171865792#7 -171865792#5 -171865800 -171865797#1 -171865797#0 -171867135#1 -171867135#0 -715685826#0 800610509#4 800610509#3 306475945 186258462#1 186258462#0 133755126#14 706318004#0"/>
    </person>
    <person id="ped66" type="ped_pedestrian" depart="96.04">
        <walk edges="800384384 -171865792#10 -171865792#8 -171865792#7 -171865792#5 -171865800 -171865797#1 -171865797#0 -171867135#1 -171867135#0 -715685826#0 800610509#4 800610509#3 306475945 186258462#1 186258462#0 133755126#14 133755126#13 133755126#11 133755126#10 133755126#9 133755126#8 133755126#7 133755126#6 133755126#5 133755126#4 133755126#3 133755126#2 133755126#1 -133755126#0 817117729#1 804207589#1 804217356#11 803757990"/>
    </person>
    <person id="ped67" type="ped_pedestrian" depart="97.49">
        <walk edges="-171865792#2 -171865792#3 -171865792#5 -171865792#7 -171865792#8 -171865792#10 -171865792#11 -171865792#12 171867127#2 171867127#1 171867127#0 -171867131#1 -171867131#2 -171865797#7 -171865797#8 -236471196 -288926324#0 -288926324#1 -288926324#2 -288926324#3 -288926324#4 -288926324#5 706734276#1 -706734275#0 -706734275#1 186263433#2 290625965 186263438#1 -364433566 -186263433#0 122612374#2"/>
    </person>
    <person id="ped68" type="ped_pedestrian" depart="98.95">
        <walk edges="-135530186#8 -171870084#0 -171870084#1 -171870084#2 -171870084#3 246982749#2 246982749#1 246982749#0 158486424#6 158486424#5 158486424#4 -158486424#3 171902839#0 171902839#1 171902839#2 171902839#3 171902839#4 171867126#7 706734276#2 288926324#5 288926324#4 288926324#3 288926324#2 288926324#1 288926324#0 -236471196 -171865797#8 -171865797#7 -171865797#6 -171865797#5 -171865797#4 -171865797#3 -171865797#2 -171865797#1 171865779 246989090"/>
    </person>
    <person id="ped69" type="ped_pedestrian" depart="100.40">