<?xml version="1.0" encoding="UTF-8"?>

<!-- generated on Tue Feb 16 19:51:33 2021 by Eclipse SUMO netedit Version 1.7.0
<configuration xmlns:xsi="http://www.w3.org/2001/XMLSchema-instance" xsi:noNamespaceSchemaLocation="http://sumo.dlr.de/xsd/netconvertConfiguration.xsd">

    <input>
        <sumo-net-file value="practice1.net.xml"/>
    </input>

    <output>
        <output-file value="practice1.net.xml"/>
    </output>

    <processing>
        <geometry.min-radius.fix.railways value="false"/>
        <geometry.max-grade.fix value="false"/>
        <offset.disable-normalization value="true"/>
        <lefthand value="false"/>
    </processing>

    <junctions>
        <no-internal-links value="false"/>
        <no-turnarounds value="true"/>
        <junctions.corner-detail value="5"/>
        <junctions.limit-turn-speed value="5.5"/>
        <rectangular-lane-cut value="false"/>
    </junctions>

    <pedestrian>
        <walkingareas value="false"/>
    </pedestrian>

    <netedit>
        <additional-files value="/home/shashwath/Sumo/sumo_exam/Normal/bus.add.xml"/>
        <route-files value="/home/shashwath/Sumo/sumo_exam/Normal/person.rou.xml"/>
    </netedit>

    <report>
        <aggregate-warnings value="5"/>
    </report>

</configuration>
-->

<additional xmlns:xsi="http://www.w3.org/2001/XMLSchema-instance" xsi:noNamespaceSchemaLocation="http://sumo.dlr.de/xsd/additional_file.xsd">
    <busStop id="busStop_-gneE1_1_6" lane="-gneE1_1" startPos="10.81" endPos="20.81" name="stop1" personCapacity="20"/>
    <busStop id="busStop_-gneE2_1_5" lane="-gneE2_1" startPos="12.00" endPos="22.00" name="stop1" personCapacity="20"/>
    <busStop id="busStop_-gneE3_1_4" lane="-gneE3_1" startPos="9.85" endPos="19.85" name="stop1" personCapacity="20"/>
    <busStop id="busStop_-gneE4_1_3" lane="-gneE4_1" startPos="22.93" endPos="32.93" name="stop1" personCapacity="20"/>
    <busStop id="busStop_-gneE5_1_2" lane="-gneE5_1" startPos="14.48" endPos="24.48" name="stop1" personCapacity="20"/>
    <busStop id="busStop_-gneE6_1_1" lane="-gneE6_1" startPos="14.47" endPos="24.47" name="stop1" personCapacity="20"/>
    <busStop id="busStop_-gneE8_1_0" lane="-gneE8_1" startPos="7.24" endPos="17.24" name="stop1" personCapacity="20"/>
</additional>
