<?xml version="1.0" encoding="UTF-8"?>

<!-- generated on Tue Feb 16 19:48:54 2021 by Eclipse SUMO netedit Version 1.7.0
<configuration xmlns:xsi="http://www.w3.org/2001/XMLSchema-instance" xsi:noNamespaceSchemaLocation="http://sumo.dlr.de/xsd/netconvertConfiguration.xsd">

    <input>
        <sumo-net-file value="practice1.net.xml"/>
    </input>

    <output>
        <output-file value="practice1.net.xml"/>
    </output>

    <processing>
        <geometry.min-radius.fix.railways value="false"/>
        <geometry.max-grade.fix value="false"/>
        <offset.disable-normalization value="true"/>
        <lefthand value="false"/>
    </processing>

    <junctions>
        <no-internal-links value="false"/>
        <no-turnarounds value="true"/>
        <junctions.corner-detail value="5"/>
        <junctions.limit-turn-speed value="5.5"/>
        <rectangular-lane-cut value="false"/>
    </junctions>

    <pedestrian>
        <walkingareas value="false"/>
    </pedestrian>

    <netedit>
        <route-files value="/home/shashwath/Sumo/sumo_exam/Normal/person.rou.xml"/>
    </netedit>

    <report>
        <aggregate-warnings value="5"/>
    </report>

</configuration>
-->

<routes xmlns:xsi="http://www.w3.org/2001/XMLSchema-instance" xsi:noNamespaceSchemaLocation="http://sumo.dlr.de/xsd/routes_file.xsd">
    <vType id="DEFAULT_VEHTYPE" vClass="bus" color="blue"/>
    <vType id="bus" vClass="bus" color="cyan"/>
    <vType id="vType_0"/>
    <flow id="flow_0" type="bus" begin="0.00" from="-gneE0" to="-gneE0" via="-gneE8 -gneE7 -gneE6 -gneE5 -gneE4 -gneE3 -gneE2 -gneE1" end="3600.00" number="1800"/>
    <person id="person_0" depart="0.00">
        <personTrip from="gneE6" to="gneE7"/>
    </person>
    <person id="person_1" depart="0.00">
        <personTrip from="gneE8" to="gneE15"/>
    </person>
    <person id="person_2" depart="0.00">
        <personTrip from="gneE15" to="gneE6"/>
    </person>
    <personFlow id="personFlow_0" begin="0.00" end="3600.00" number="1800">
        <personTrip from="-gneE7" to="-gneE6"/>
    </personFlow>
    <personFlow id="personFlow_1" begin="0.00" end="3600.00" number="1800">
        <personTrip from="-gneE5" to="-gneE4"/>
    </personFlow>
    <personFlow id="personFlow_2" begin="0.00" end="3600.00" number="1800">
        <personTrip from="-gneE14" to="-gneE3"/>
    </personFlow>
    <personFlow id="personFlow_3" begin="0.00" end="3600.00" number="1800">
        <personTrip from="-gneE2" to="-gneE1"/>
    </personFlow>
    <personFlow id="personFlow_4" begin="0.00" end="3600.00" number="1800">
        <personTrip from="-gneE0" to="-gneE8"/>
    </personFlow>
    <personFlow id="personFlow_5" begin="0.00" end="3600.00" number="1800">
        <personTrip from="-gneE0" to="gneE0"/>
    </personFlow>
</routes>
