<?xml version="1.0" encoding="UTF-8"?>
<!-- generated on 2020-11-28 10:27:43.544150 by randomTrips.py v1_7_0+0000-714814baed
  options: -n reduced_map.net.xml -r bus_routes.rou.xml -o bus_trips.xml -e 3600 -p 30 <doubleminus>vehicle-class bus <doubleminus>trip-attributes=accel="0.8"
-->
<routes xmlns:xsi="http://www.w3.org/2001/XMLSchema-instance" xsi:noNamespaceSchemaLocation="http://sumo.dlr.de/xsd/routes_file.xsd">
    <vType id="bus" vClass="bus" accel="0.8"/>
    <trip id="0" depart="0.00" from="171870088#0" to="-133755118#0" type="bus"/>
    <trip id="1" depart="30.00" from="-288926324#3" to="-171870088#0" type="bus"/>
    <trip id="2" depart="60.00" from="374529112#1" to="246982755#0" type="bus"/>
    <trip id="3" depart="90.00" from="803757988#3" to="-133755130#0" type="bus"/>
    <trip id="4" depart="120.00" from="122612374#2" to="-133755118#2" type="bus"/>
    <trip id="5" depart="150.00" from="-171870088#1" to="133755130#1" type="bus"/>
    <trip id="6" depart="180.00" from="-133755118#0" to="-171870075#1" type="bus"/>
    <trip id="7" depart="210.00" from="186254733#1" to="135530186#5" type="bus"/>
    <trip id="8" depart="240.00" from="-186254733#0" to="171867130#1" type="bus"/>
    <trip id="9" depart="270.00" from="374533524#5" to="-122612374#0" type="bus"/>
    <trip id="10" depart="300.00" from="374533524#3" to="306475939" type="bus"/>
    <trip id="11" depart="330.00" from="-706734275#2" to="-158486424#13" type="bus"/>
    <trip id="12" depart="360.00" from="804217356#0" to="-706734274#0" type="bus"/>
    <trip id="13" depart="390.00" from="-133755130#3" to="-133755130#4" type="bus"/>
    <trip id="14" depart="420.00" from="706734275#1" to="171867136#3" type="bus"/>
    <trip id="15" depart="450.00" from="374533524#4" to="374529112#0" type="bus"/>
    <trip id="16" depart="480.00" from="135530186#13" to="804217356#5" type="bus"/>
    <trip id="17" depart="510.00" from="-803757988#0" to="135530186#8" type="bus"/>
    <trip id="18" depart="540.00" from="578203893" to="171870081#1" type="bus"/>
    <trip id="19" depart="570.00" from="706734276#3" to="158486424#6" type="bus"/>
    <trip id="20" depart="600.00" from="306475940#0" to="-133755126#0" type="bus"/>
    <trip id="21" depart="630.00" from="-186254736#0" to="-306475940#0" type="bus"/>
    <trip id="22" depart="660.00" from="-133755126#8" to="-186254733#1" type="bus"/>
    <trip id="23" depart="690.00" from="-133755133#1" to="-288926324#1" type="bus"/>
    <trip id="24" depart="720.00" from="171870085#1" to="-800610495#0" type="bus"/>
    <trip id="25" depart="750.00" from="-800669863" to="-171870082" type="bus"/>
    <trip id="26" depart="780.00" from="-286438372" to="804207590#2" type="bus"/>
    <trip id="27" depart="810.00" from="186254733#1" to="171870075#1" type="bus"/>
    <trip id="28" depart="840.00" from="-171867130#0" to="374529112#0" type="bus"/>
    <trip id="29" depart="870.00" from="-158486424#7" to="-803757988#1" type="bus"/>
    <trip id="30" depart="900.00" from="817117729#0" to="186254733#0" type="bus"/>
    <trip id="31" depart="930.00" from="135530186#9" to="286438372" type="bus"/>
    <trip id="32" depart="960.00" from="706734274#0" to="374529123#1" type="bus"/>
    <trip id="33" depart="990.00" from="-186254736#0" to="-133755118#3" type="bus"/>
    <trip id="34" depart="1020.00" from="-374530997#1" to="-286438371#0" type="bus"/>
    <trip id="35" depart="1050.00" from="-171870085#1" to="804207591#0" type="bus"/>
    <trip id="36" depart="1080.00" from="803243445#0" to="-306475944#0" type="bus"/>
    <trip id="37" depart="1110.00" from="186258455#2" to="-803758022" type="bus"/>
    <trip id="38" depart="1140.00" from="804207586" to="133755124" type="bus"/>
    <trip id="39" depart="1170.00" from="-286438371#1" to="-186263433#1" type="bus"/>
    <trip id="40" depart="1200.00" from="158486424#1" to="-246982749#2" type="bus"/>
    <trip id="41" depart="1230.00" from="158486424#7" to="803758020" type="bus"/>
    <trip id="42" depart="1260.00" from="-804207585" to="-171870085#1" type="bus"/>
    <trip id="43" depart="1290.00" from="817117729#3" to="133755130#3" type="bus"/>
    <trip id="44" depart="1320.00" from="-133755130#3" to="-133755126#1" type="bus"/>
    <trip id="45" depart="1350.00" from="-135530186#10" to="171870085#0" type="bus"/>
    <trip id="46" depart="1380.00" from="374532416#2" to="122612374#1" type="bus"/>
    <trip id="47" depart="1410.00" from="-133755126#16" to="-803757988#2" type="bus"/>
    <trip id="48" depart="1440.00" from="817117729#3" to="135530186#11" type="bus"/>
    <trip id="49" depart="1470.00" from="804217356#4" to="706734276#3" type="bus"/>
    <trip id="50" depart="1500.00" from="-122612374#2" to="306475943#1" type="bus"/>
    <trip id="51" depart="1530.00" from="246982755#0" to="135530186#2" type="bus"/>
    <trip id="52" depart="1560.00" from="-286438372" to="186254733#1" type="bus"/>
    <trip id="53" depart="1590.00" from="-135530186#11" to="133755117#0" type="bus"/>
    <trip id="54" depart="1620.00" from="133755118#5" to="804207591#5" type="bus"/>
    <trip id="55" depart="1650.00" from="803243445#0" to="-246982749#2" type="bus"/>
    <trip id="56" depart="1680.00" from="133755126#9" to="-171867130#1" type="bus"/>
    <trip id="57" depart="1710.00" from="804207585" to="800610495#0" type="bus"/>
    <trip id="58" depart="1740.00" from="-306475943#0" to="186254733#0" type="bus"/>
    <trip id="59" depart="1770.00" from="171867136#4" to="-158486424#12" type="bus"/>
    <trip id="60" depart="1800.00" from="374529118#6" to="135530186#3" type="bus"/>
    <trip id="61" depart="1830.00" from="374529123#0" to="135530186#11" type="bus"/>
    <trip id="62" depart="1860.00" from="-122612356#0" to="-374530997#1" type="bus"/>
    <trip id="63" depart="1890.00" from="-133755117#1" to="804207589#3" type="bus"/>
    <trip id="64" depart="1920.00" from="803243445#1" to="706318004#1" type="bus"/>
    <trip id="65" depart="1950.00" from="-306475944#0" to="-133755126#13" type="bus"/>
    <trip id="66" depart="1980.00" from="803243445#1" to="804207591#2" type="bus"/>
    <trip id="67" depart="2010.00" from="-133755130#1" to="133755126#3" type="bus"/>
    <trip id="68" depart="2040.00" from="-133755126#4" to="374529120#0" type="bus"/>
    <trip id="69" depart="2070.00" from="374529120#0" to="-135530186#4" type="bus"/>
    <trip id="70" depart="2100.00" from="133755126#14" to="135530186#7" type="bus"/>
    <trip id="71" depart="2130.00" from="-286438371#1" to="800610495#0" type="bus"/>
    <trip id="72" depart="2160.00" from="122612374#3" to="-171870084#0" type="bus"/>
    <trip id="73" depart="2190.00" from="135530186#2" to="374529112#0" type="bus"/>
    <trip id="74" depart="2220.00" from="-171870082" to="-306475943#2" type="bus"/>
    <trip id="75" depart="2250.00" from="817117729#3" to="186262687#0" type="bus"/>
    <trip id="76" depart="2280.00" from="133755117#3" to="133755133#0" type="bus"/>
    <trip id="77" depart="2310.00" from="-135530186#3" to="-171870088#0" type="bus"/>
    <trip id="78" depart="2340.00" from="-706734275#1" to="171867130#0" type="bus"/>
    <trip id="79" depart="2370.00" from="-186262687#0" to="-171870086#0" type="bus"/>
    <trip id="80" depart="2400.00" from="-133755126#5" to="171870086#0" type="bus"/>
    <trip id="81" depart="2430.00" from="-186254736#0" to="803758024" type="bus"/>
    <trip id="82" depart="2460.00" from="706734276#2" to="-133755126#3" type="bus"/>
    <trip id="83" depart="2490.00" from="-186263433#2" to="246982749#0" type="bus"/>
    <trip id="84" depart="2520.00" from="-171870086#0" to="-135530186#6" type="bus"/>
    <trip id="85" depart="2550.00" from="804207590#1" to="158486424#3" type="bus"/>
    <trip id="86" depart="2580.00" from="133755126#13" to="374532416#1" type="bus"/>
    <trip id="87" depart="2610.00" from="374533524#4" to="-171867136#2" type="bus"/>
    <trip id="88" depart="2640.00" from="-133755130#5" to="133055393#1" type="bus"/>
    <trip id="89" depart="2670.00" from="122612374#3" to="133755126#11" type="bus"/>
    <trip id="90" depart="2700.00" from="306475944#0" to="246982749#2" type="bus"/>
    <trip id="91" depart="2730.00" from="804217356#9" to="-133755130#5" type="bus"/>
    <trip id="92" depart="2760.00" from="-804207586" to="-706734275#0" type="bus"/>
    <trip id="93" depart="2790.00" from="706734276#3" to="-186263433#2" type="bus"/>
    <trip id="94" depart="2820.00" from="-171870075#0" to="133755118#2" type="bus"/>
    <trip id="95" depart="2850.00" from="122612374#2" to="-288926324#1" type="bus"/>
    <trip id="96" depart="2880.00" from="-246982749#0" to="804207589#0" type="bus"/>
    <trip id="97" depart="2910.00" from="133755118#1" to="706734276#3" type="bus"/>
    <trip id="98" depart="2940.00" from="135530186#7" to="-133755126#10" type="bus"/>
    <trip id="99" depart="2970.00" from="gneE0" to="706318005" type="bus"/>
    <trip id="100" depart="3000.00" from="804217356#3" to="804207589#1" type="bus"/>
    <trip id="101" depart="3030.00" from="706734275#2" to="-158486424#6" type="bus"/>
    <trip id="102" depart="3060.00" from="133755126#3" to="-171870084#1" type="bus"/>
    <trip id="103" depart="3090.00" from="-804207586" to="-133755126#13" type="bus"/>
    <trip id="104" depart="3120.00" from="-803757988#1" to="804217356#9" type="bus"/>
    <trip id="105" depart="3150.00" from="-286438371#1" to="374532416#1" type="bus"/>
    <trip id="106" depart="3180.00" from="133755123" to="122612374#2" type="bus"/>
    <trip id="107" depart="3210.00" from="804217356#0" to="817230302" type="bus"/>
    <trip id="108" depart="3240.00" from="135530186#9" to="306475943#0" type="bus"/>
    <trip id="109" depart="3270.00" from="-158486424#4" to="-306475941#1" type="bus"/>
    <trip id="110" depart="3300.00" from="804217356#3" to="158486424#6" type="bus"/>
    <trip id="111" depart="3330.00" from="135530186#3" to="374529118#2" type="bus"/>
    <trip id="112" depart="3360.00" from="-133755126#14" to="158486424#8" type="bus"/>
    <trip id="113" depart="3390.00" from="133755130#0" to="706734275#3" type="bus"/>
    <trip id="114" depart="3420.00" from="-158486424#5" to="804217356#1" type="bus"/>
    <trip id="115" depart="3450.00" from="-133755126#8" to="-171867136#1" type="bus"/>
    <trip id="116" depart="3480.00" from="171867130#1" to="246982755#0" type="bus"/>
    <trip id="117" depart="3510.00" from="-186263433#1" to="-135530186#13" type="bus"/>
    <trip id="118" depart="3540.00" from="803757988#3" to="-186263433#1" type="bus"/>
    <trip id="119" depart="3570.00" from="171867130#1" to="171870082" type="bus"/>
</routes>
