<?xml version="1.0" encoding="UTF-8"?>

<!-- generated on Sat Nov 28 10:27:43 2020 by Eclipse SUMO duarouter Version 1.7.0
<configuration xmlns:xsi="http://www.w3.org/2001/XMLSchema-instance" xsi:noNamespaceSchemaLocation="http://sumo.dlr.de/xsd/duarouterConfiguration.xsd">

    <input>
        <net-file value="reduced_map.net.xml"/>
        <route-files value="bus_trips.xml"/>
    </input>

    <output>
        <output-file value="bus_routes.rou.xml"/>
        <alternatives-output value="bus_routes.rou.alt.xml"/>
    </output>

    <time>
        <begin value="0"/>
        <end value="3600"/>
    </time>

    <report>
        <no-warnings value="true"/>
        <ignore-errors value="true"/>
        <no-step-log value="true"/>
    </report>

</configuration>
-->

<routes xmlns:xsi="http://www.w3.org/2001/XMLSchema-instance" xsi:noNamespaceSchemaLocation="http://sumo.dlr.de/xsd/routes_file.xsd">
    <vType id="bus" vClass="bus" accel="0.8"/>
    <vehicle id="bus0" type="bus" depart="0.00">
        <route edges="171870088#0 171870088#1 135530186#3 135530186#4 -374529123#1 -374529123#0 374529118#7 374529118#0 374529118#1 374529118#2 374529115 804217356#0 804217356#1 804207585 804207591#4 -374530997#1 -588939865 -133755118#5 -133755118#4 -133755118#3 -133755118#2 -133755118#1 -133755118#0"/>
    </vehicle>
    <vehicle id="bus1" type="bus" depart="30.00">
        <route edges="-288926324#3 288926324#3 288926324#4 -706734276#1 706734275#0 706734275#1 706734275#2 706734275#3 -122612374#0 -122612356#0 374529112#1 374529112#2 374529112#3 374533524#5 374533524#6 374533524#0 374533525#0 374533525#1 374533525#2 374533525#3 374533525#4 374533525#5 374529118#6 374529123#0 374529123#1 -135530186#4 -135530186#3 -171870088#1 -171870088#0"/>
    </vehicle>
    <vehicle id="bus2" type="bus" depart="60.00">
        <route edges="374529112#1 374529112#2 374529112#3 374533524#5 374533524#6 374533524#0 374533525#0 374533525#1 374533525#2 374533525#3 -158486424#13 -158486424#12 -158486424#11 -158486424#10 246982755#0"/>
    </vehicle>
    <vehicle id="bus3" type="bus" depart="90.00">
        <route edges="803757988#3 804207590#1 804207590#2 -803757988#0 804207584#1 817117729#1 817117729#2 817117729#3 804207589#0 804207591#0 804207591#1 804207591#2 804207591#3 804207591#4 804207591#5 374529118#4 133055393#0 761223739 374533525#3 -158486424#13 -158486424#12 -158486424#11 -158486424#10 -158486424#9 -158486424#8 -158486424#7 -158486424#6 -158486424#5 -158486424#4 -158486424#3 -158486424#2 -158486424#1 -133755130#5 -133755130#4 -133755130#3 -133755130#2 -133755130#1 -133755130#0"/>
    </vehicle>
    <vehicle id="bus4" type="bus" depart="120.00">
        <route edges="122612374#2 -122612374#2 -122612374#1 -122612374#0 -122612356#0 374529112#1 -306475939 -133755126#16 -133755126#15 -133755126#14 -133755126#13 -133755126#12 -133755126#11 -133755126#10 -133755126#9 -133755126#8 -133755126#7 -133755126#6 -186254733#1 706318011 -133755118#2"/>
    </vehicle>
    <vehicle id="bus5" type="bus" depart="150.00">
        <route edges="-171870088#1 171870088#1 -135530186#2 -135530186#1 133755130#0 133755130#1"/>
    </vehicle>
    <vehicle id="bus6" type="bus" depart="180.00">
        <route edges="-133755118#0 -133755126#1 -133755126#0 817117729#3 804207589#0 804207591#0 804207591#1 804207591#2 804207591#3 804207591#4 804207591#5 374529118#4 133055393#0 761223739 374533525#3 374533525#4 171870086#0 171870085#0 -171870075#1"/>
    </vehicle>
    <vehicle id="bus7" type="bus" depart="210.00">
        <route edges="186254733#1 -186254733#1 706318011 133755118#3 133755118#4 133755118#5 588939865 374530997#1 804207591#5 374529118#4 374529118#5 374529118#6 374529123#0 374529123#1 135530186#5"/>
    </vehicle>
    <vehicle id="bus8" type="bus" depart="240.00">
        <route edges="-186254733#0 133755126#7 133755126#8 133755126#9 133755126#10 133755126#11 133755126#12 133755126#13 133755126#14 133755126#15 133755126#16 306475939 374529112#2 374529112#3 374533524#5 -171867130#3 -171867130#2 -171867130#1 171867130#1"/>
    </vehicle>
    <vehicle id="bus9" type="bus" depart="270.00">
        <route edges="374533524#5 374533524#6 374533524#0 374533524#1 374533524#2 374533524#3 374533523#0 374533523#1 374529112#0 122612356#0 122612374#0 -122612374#0"/>
    </vehicle>
    <vehicle id="bus10" type="bus" depart="300.00">
        <route edges="374533524#3 374533523#0 306475939"/>
    </vehicle>
    <vehicle id="bus11" type="bus" depart="330.00">
        <route edges="-706734275#2 706734275#2 706734275#3 -122612374#0 -122612356#0 374529112#1 374529112#2 374529112#3 374533524#5 374533524#6 374533524#0 374533525#0 374533525#1 374533525#2 374533525#3 -158486424#13"/>
    </vehicle>
    <vehicle id="bus12" type="bus" depart="360.00">
        <route edges="804217356#0 804217356#1 804207585 804207591#4 804207591#5 374529118#4 133055393#0 133055393#1 578203893 374533524#2 374533524#3 374533523#0 374533523#1 374529112#0 122612356#0 122612374#0 -706734275#3 -706734275#2 -706734275#1 -706734275#0 706734276#1 706734274#0 -706734274#0"/>
    </vehicle>
    <vehicle id="bus13" type="bus" depart="390.00">
        <route edges="-133755130#3 133755130#3 133755130#4 -133755130#4"/>
    </vehicle>
    <vehicle id="bus14" type="bus" depart="420.00">
        <route edges="706734275#1 706734275#2 706734275#3 -122612374#0 122612356#1 171867136#1 171867136#2 171867136#3"/>
    </vehicle>
    <vehicle id="bus15" type="bus" depart="450.00">
        <route edges="374533524#4 374533524#5 374533524#6 374533524#0 374533524#1 374533524#2 374533524#3 374533523#0 374533523#1 374529112#0"/>
    </vehicle>
    <vehicle id="bus16" type="bus" depart="480.00">
        <route edges="135530186#13 374529120#1 374529120#2 374529118#2 374529115 804217356#0 804217356#1 804217356#2 804217356#3 804217356#4 804217356#5"/>
    </vehicle>
    <vehicle id="bus17" type="bus" depart="510.00">
        <route edges="-803757988#0 804207584#1 817117729#1 817117729#2 817117729#3 804207589#0 804207591#0 804207591#1 804207591#2 804207591#3 804207591#4 804207591#5 374529118#4 374529118#5 374529118#6 374529118#7 374529118#0 374529122#0 374529122#1 374532416#0 -135530186#12 -135530186#11 -135530186#10 -135530186#9 -135530186#8 135530186#8"/>
    </vehicle>
    <vehicle id="bus18" type="bus" depart="540.00">
        <route edges="578203893 374533524#2 374533524#3 374533524#4 374533524#5 374533524#6 374533524#0 374533525#0 374533525#1 374533525#2 374533525#3 374533525#4 374533525#5 374529118#6 374529123#0 -171870084#1 171870081#1"/>
    </vehicle>
    <vehicle id="bus19" type="bus" depart="570.00">
        <route edges="706734276#3 706734276#4 706734276#0 706734275#0 706734275#1 706734275#2 706734275#3 -122612374#0 -122612356#0 374529112#1 374529112#2 374529112#3 374533524#5 374533524#6 374533524#0 374533525#0 374533525#1 374533525#2 374533525#3 -158486424#13 -158486424#12 -158486424#11 -158486424#10 -158486424#9 -158486424#8 -158486424#7 -158486424#6 158486424#6"/>
    </vehicle>
    <vehicle id="bus20" type="bus" depart="600.00">
        <route edges="306475940#0 306475940#1 804217356#4 804217356#5 804217356#6 804217356#7 804217356#8 804217356#9 804217356#10 804217356#11 804207589#2 804207589#3 817117729#0 817117729#1 817117729#2 133755126#0 -133755126#0"/>
    </vehicle>
    <vehicle id="bus21" type="bus" depart="630.00">
        <route edges="-186254736#0 -133755126#11 -133755126#10 -133755126#9 -133755126#8 -133755126#7 -133755126#6 -133755126#5 -133755126#4 -133755126#3 -133755126#2 -133755126#1 -133755126#0 817117729#3 804207589#0 804207591#0 804207591#1 804207591#2 804207591#3 -804207585 804217356#2 804217356#3 -306475940#1 -306475940#0"/>
    </vehicle>
    <vehicle id="bus22" type="bus" depart="660.00">
        <route edges="-133755126#8 -133755126#7 -133755126#6 -186254733#1"/>
    </vehicle>
    <vehicle id="bus23" type="bus" depart="690.00">
        <route edges="-133755133#1 133755124 133755126#3 133755126#4 133755126#5 133755126#6 133755126#7 133755126#8 133755126#9 133755126#10 133755126#11 133755126#12 133755126#13 133755126#14 133755126#15 133755126#16 374533523#1 374529112#0 122612356#0 122612374#0 -706734275#3 -706734275#2 -706734275#1 -706734275#0 706734276#1 -288926324#4 -288926324#3 -288926324#2 -288926324#1"/>
    </vehicle>
    <vehicle id="bus24" type="bus" depart="720.00">
        <route edges="171870085#1 158486424#12 171867130#0 171867130#1 -800610495#1 -800610495#0"/>
    </vehicle>
    <vehicle id="bus25" type="bus" depart="750.00">
        <route edges="-800669863 158486424#4 158486424#5 158486424#6 158486424#7 158486424#8 158486424#9 158486424#10 158486424#11 158486424#12 171867130#0 171867130#1 171867130#2 -171870082"/>
    </vehicle>
    <vehicle id="bus26" type="bus" depart="780.00">
        <route edges="-286438372 286438372 135530186#9 135530186#10 135530186#11 135530186#12 135530186#13 374529120#1 374529120#2 374529118#2 374529115 804217356#0 804217356#1 804217356#2 804217356#3 804217356#4 804217356#5 804217356#6 804217356#7 804217356#8 804217356#9 804217356#10 804217356#11 804207589#2 804207590#0 804207590#1 804207590#2"/>
    </vehicle>
    <vehicle id="bus27" type="bus" depart="810.00">
        <route edges="186254733#1 133755126#6 133755126#7 133755126#8 133755126#9 133755126#10 133755126#11 133755126#12 133755126#13 133755126#14 133755126#15 133755126#16 306475939 374529112#2 374529112#3 374533524#5 374533524#6 374533524#0 374533525#0 374533525#1 374533525#2 374533525#3 374533525#4 171870086#0 171870085#0 -171870075#1 171870075#1"/>
    </vehicle>
    <vehicle id="bus28" type="bus" depart="840.00">
        <route edges="-171867130#0 171867130#0 171867130#1 171867130#2 171867130#3 374533524#6 374533524#0 374533524#1 374533524#2 374533524#3 374533523#0 374533523#1 374529112#0"/>
    </vehicle>
    <vehicle id="bus29" type="bus" depart="870.00">
        <route edges="-158486424#7 158486424#7 158486424#8 158486424#9 158486424#10 158486424#11 158486424#12 158486424#13 374533525#4 374533525#5 374529118#6 374529118#7 374529118#0 374529118#1 374529118#2 374529115 804217356#0 804217356#1 804217356#2 804217356#3 804217356#4 804217356#5 804217356#6 804217356#7 804217356#8 804217356#9 804217356#10 -803757990 -803757988#2 -803757988#1"/>
    </vehicle>
    <vehicle id="bus30" type="bus" depart="900.00">
        <route edges="817117729#0 817117729#1 817117729#2 133755126#0 133755126#1 133755126#2 133755126#3 133755126#4 133755126#5 133755126#6 186254733#0"/>
    </vehicle>
    <vehicle id="bus31" type="bus" depart="930.00">
        <route edges="135530186#9 -135530186#9 -286438372 286438372"/>
    </vehicle>
    <vehicle id="bus32" type="bus" depart="960.00">
        <route edges="706734274#0 -706734274#0 -706734276#1 706734275#0 706734275#1 706734275#2 706734275#3 -122612374#0 -122612356#0 374529112#1 374529112#2 374529112#3 374533524#5 374533524#6 374533524#0 374533525#0 374533525#1 374533525#2 374533525#3 374533525#4 374533525#5 374529118#6 374529123#0 374529123#1"/>
    </vehicle>
    <vehicle id="bus33" type="bus" depart="990.00">
        <route edges="-186254736#0 -133755126#11 -133755126#10 -133755126#9 -133755126#8 -133755126#7 -133755126#6 -186254733#1 706318011 133755118#3 -133755118#3"/>
    </vehicle>
    <vehicle id="bus34" type="bus" depart="1020.00">
        <route edges="-374530997#1 374530997#1 804207591#5 374529118#4 374529118#5 374529118#6 374529118#7 374529118#0 374529122#0 374529122#1 374532416#0 374532416#1 -286438371#1 -286438371#0"/>
    </vehicle>
    <vehicle id="bus35" type="bus" depart="1050.00">
        <route edges="-171870085#1 -171870085#0 -171870086#0 374533525#5 374529118#6 374529118#7 374529118#0 374529118#1 374529118#2 374529115 804217356#0 804217356#1 804217356#2 804217356#3 804217356#4 804217356#5 804217356#6 804217356#7 804217356#8 804217356#9 804217356#10 804217356#11 804207589#2 804207589#3 817117729#0 817117729#1 817117729#2 817117729#3 804207589#0 804207591#0"/>
    </vehicle>
    <vehicle id="bus36" type="bus" depart="1080.00">
        <route edges="803243445#0 803243445#1 135530186#2 135530186#3 135530186#4 -374529123#1 -374529123#0 374529118#7 374529118#0 374529118#1 374529118#2 374529115 804217356#0 804217356#1 804217356#2 804217356#3 804217356#4 804217356#5 804217356#6 804217356#7 804217356#8 -306475943#2 -306475944#1 -306475944#0"/>
    </vehicle>
    <vehicle id="bus37" type="bus" depart="1110.00">
        <route edges="186258455#2 -186254736#0 133755126#12 133755126#13 133755126#14 133755126#15 133755126#16 306475939 374529112#2 374529112#3 374533524#5 374533524#6 374533524#0 374533525#0 374533525#1 374533525#2 374533525#3 374533525#4 374533525#5 374529118#6 374529123#0 -171870084#1 -171870084#0 -803758022"/>
    </vehicle>
    <vehicle id="bus38" type="bus" depart="1140.00">
        <route edges="804207586 -804207586 804217356#5 804217356#6 804217356#7 804217356#8 804217356#9 804217356#10 804217356#11 804207589#2 804207589#3 817117729#0 817117729#1 817117729#2 133755126#0 133755117#0 133755133#0 133755124"/>
    </vehicle>
    <vehicle id="bus39" type="bus" depart="1170.00">
        <route edges="-286438371#1 803758021 135530186#11 135530186#12 135530186#13 374529120#1 374529120#2 374529118#2 374529118#3 374529118#4 133055393#0 133055393#1 578203893 374533524#2 374533524#3 374533523#0 374533523#1 374529112#0 122612356#0 122612374#0 -706734275#3 -706734275#2 -186263433#2 -186263433#1"/>
    </vehicle>
    <vehicle id="bus40" type="bus" depart="1200.00">
        <route edges="158486424#1 158486424#2 158486424#3 158486424#4 158486424#5 158486424#6 158486424#7 158486424#8 158486424#9 158486424#10 246982749#0 246982749#1 246982749#2 -246982749#2"/>
    </vehicle>
    <vehicle id="bus41" type="bus" depart="1230.00">
        <route edges="158486424#7 158486424#8 158486424#9 158486424#10 158486424#11 158486424#12 158486424#13 374533525#4 374533525#5 374529118#6 374529118#7 374529118#0 374529122#0 374529122#1 374532416#0 374532416#1 -286438371#1 -286438371#0 803758020"/>
    </vehicle>
    <vehicle id="bus42" type="bus" depart="1260.00">
        <route edges="-804207585 804207585 804207591#4 804207591#5 374529118#4 133055393#0 761223739 374533525#3 -158486424#13 -158486424#12 -171870085#1"/>
    </vehicle>
    <vehicle id="bus43" type="bus" depart="1290.00">
        <route edges="817117729#3 804207589#0 804207591#0 804207591#1 804207591#2 804207591#3 804207591#4 804207591#5 374529118#4 133055393#0 761223739 374533525#3 -158486424#13 -158486424#12 -158486424#11 -158486424#10 -158486424#9 -158486424#8 -158486424#7 -158486424#6 -158486424#5 -158486424#4 -158486424#3 -158486424#2 -158486424#1 -133755130#5 -133755130#4 -133755130#3 133755130#3"/>
    </vehicle>
    <vehicle id="bus44" type="bus" depart="1320.00">
        <route edges="-133755130#3 133755130#3 133755130#4 133755130#5 158486424#1 158486424#2 158486424#3 158486424#4 158486424#5 158486424#6 158486424#7 158486424#8 158486424#9 158486424#10 158486424#11 158486424#12 158486424#13 374533525#4 374533525#5 374529118#6 374529118#7 374529118#0 374529118#1 374529118#2 374529115 804217356#0 804217356#1 804207585 804207591#4 -374530997#1 -588939865 -133755118#5 -133755118#4 -133755118#3 -133755118#2 -133755118#1 -133755118#0 -133755126#1"/>
    </vehicle>
    <vehicle id="bus45" type="bus" depart="1350.00">
        <route edges="-135530186#10 135530186#10 135530186#11 135530186#12 135530186#13 374529120#1 374529120#2 374529118#2 374529118#3 374529118#4 133055393#0 761223739 374533525#3 374533525#4 171870086#0 171870085#0"/>
    </vehicle>
    <vehicle id="bus46" type="bus" depart="1380.00">
        <route edges="374532416#2 374529120#0 374529120#1 374529120#2 374529118#2 374529118#3 374529118#4 133055393#0 133055393#1 578203893 374533524#2 374533524#3 374533523#0 374533523#1 374529112#0 122612356#0 122612374#0 122612374#1"/>
    </vehicle>
    <vehicle id="bus47" type="bus" depart="1410.00">
        <route edges="-133755126#16 -133755126#15 -133755126#14 -133755126#13 -133755126#12 -133755126#11 -133755126#10 -133755126#9 -133755126#8 -133755126#7 -133755126#6 -133755126#5 -133755126#4 -133755126#3 -133755126#2 -133755126#1 -133755126#0 817117729#3 804207589#0 804207589#1 804207589#2 804207590#0 -803757988#3 -803757988#2"/>
    </vehicle>
    <vehicle id="bus48" type="bus" depart="1440.00">
        <route edges="817117729#3 804207589#0 804207591#0 804207591#1 804207591#2 804207591#3 804207591#4 804207591#5 374529118#4 374529118#5 374529118#6 374529118#7 374529118#0 374529122#0 374529122#1 374532416#0 -135530186#12 -135530186#11 135530186#11"/>
    </vehicle>
    <vehicle id="bus49" type="bus" depart="1470.00">
        <route edges="804217356#4 804207586 804207591#3 804207591#4 804207591#5 374529118#4 133055393#0 133055393#1 578203893 374533524#2 374533524#3 374533523#0 374533523#1 374529112#0 122612356#0 122612374#0 -706734275#3 -706734275#2 -706734275#1 -706734275#0 -706734276#0 -706734276#4 -706734276#3 706734276#3"/>
    </vehicle>
    <vehicle id="bus50" type="bus" depart="1500.00">
        <route edges="-122612374#2 -122612374#1 -122612374#0 -122612356#0 374529112#1 374529112#2 374529112#3 374533524#5 374533524#6 374533524#0 374533525#0 374533525#1 374533525#2 374533525#3 374533525#4 374533525#5 374529118#6 374529118#7 374529118#0 374529118#1 374529118#2 374529115 804217356#0 804217356#1 804217356#2 804217356#3 804217356#4 804217356#5 306475942#0 306475942#1 306475943#0 306475943#1"/>
    </vehicle>
    <vehicle id="bus51" type="bus" depart="1530.00">
        <route edges="246982755#0 -246982755#0 158486424#10 158486424#11 158486424#12 158486424#13 374533525#4 374533525#5 374529118#6 374529123#0 374529123#1 -135530186#4 -135530186#3 -135530186#2 135530186#2"/>
    </vehicle>
    <vehicle id="bus52" type="bus" depart="1560.00">
        <route edges="-286438372 286438372 135530186#9 135530186#10 135530186#11 135530186#12 135530186#13 374529120#1 374529120#2 374529118#2 374529115 804217356#0 804217356#1 804207585 804207591#4 -374530997#1 -588939865 -133755118#5 -133755118#4 -133755118#3 -706318011 186254733#1"/>
    </vehicle>
    <vehicle id="bus53" type="bus" depart="1590.00">
        <route edges="-135530186#11 135530186#11 135530186#12 135530186#13 374529120#1 374529120#2 374529118#2 374529115 804217356#0 804217356#1 804217356#2 804217356#3 804217356#4 804217356#5 804217356#6 804217356#7 804217356#8 804217356#9 804217356#10 804217356#11 804207589#2 804207589#3 817117729#0 817117729#1 817117729#2 133755126#0 133755117#0"/>
    </vehicle>
    <vehicle id="bus54" type="bus" depart="1620.00">
        <route edges="133755118#5 588939865 374530997#1 804207591#5"/>
    </vehicle>
    <vehicle id="bus55" type="bus" depart="1650.00">
        <route edges="803243445#0 803243445#1 135530186#2 135530186#3 171870076#0 171870076#1 171870075#0 -246982749#2"/>
    </vehicle>
    <vehicle id="bus56" type="bus" depart="1680.00">
        <route edges="133755126#9 133755126#10 133755126#11 133755126#12 133755126#13 133755126#14 133755126#15 133755126#16 306475939 374529112#2 374529112#3 374533524#5 -171867130#3 -171867130#2 -171867130#1"/>
    </vehicle>
    <vehicle id="bus57" type="bus" depart="1710.00">
        <route edges="804207585 804207591#4 804207591#5 374529118#4 133055393#0 761223739 374533525#3 -158486424#13 171867130#0 171867130#1 -800610495#1 -800610495#0 800610495#0"/>
    </vehicle>
    <vehicle id="bus58" type="bus" depart="1740.00">
        <route edges="-306475943#0 -306475942#1 -306475942#0 804217356#6 804217356#7 804217356#8 804217356#9 804217356#10 804217356#11 804207589#2 804207589#3 817117729#0 817117729#1 817117729#2 133755126#0 133755126#1 133755126#2 133755126#3 133755126#4 133755126#5 133755126#6 186254733#0"/>
    </vehicle>
    <vehicle id="bus59" type="bus" depart="1770.00">
        <route edges="171867136#4 374529112#3 374533524#5 374533524#6 374533524#0 374533525#0 374533525#1 374533525#2 374533525#3 -158486424#13 -158486424#12"/>
    </vehicle>
    <vehicle id="bus60" type="bus" depart="1800.00">
        <route edges="374529118#6 374529123#0 374529123#1 -135530186#4 -135530186#3 135530186#3"/>
    </vehicle>
    <vehicle id="bus61" type="bus" depart="1830.00">
        <route edges="374529123#0 -171870084#1 -171870084#0 -803758022 -135530186#11 135530186#11"/>
    </vehicle>
    <vehicle id="bus62" type="bus" depart="1860.00">
        <route edges="-122612356#0 374529112#1 374529112#2 374529112#3 374533524#5 374533524#6 374533524#0 374533525#0 374533525#1 374533525#2 374533525#3 374533525#4 374533525#5 374529118#6 374529118#7 374529118#0 374529118#1 374529118#2 374529115 804217356#0 804217356#1 804207585 804207591#4 -374530997#1"/>
    </vehicle>
    <vehicle id="bus63" type="bus" depart="1890.00">
        <route edges="-133755117#1 -133755117#0 -133755126#0 817117729#3 804207589#0 804207589#1 804207589#2 804207589#3"/>
    </vehicle>
    <vehicle id="bus64" type="bus" depart="1920.00">
        <route edges="803243445#1 135530186#2 135530186#3 135530186#4 -374529123#1 -374529123#0 374529118#7 374529118#0 374529118#1 374529118#2 374529118#3 374529118#4 133055393#0 133055393#1 578203893 374533524#2 374533524#3 374533523#0 -133755126#16 -133755126#15 -133755126#14 706318004#0 706318004#1"/>
    </vehicle>
    <vehicle id="bus65" type="bus" depart="1950.00">
        <route edges="-306475944#0 306475943#1 306475943#2 804217356#9 804217356#10 804217356#11 804207589#2 804207589#3 817117729#0 817117729#1 817117729#2 133755126#0 133755126#1 133755126#2 133755126#3 133755126#4 133755126#5 133755126#6 133755126#7 133755126#8 133755126#9 133755126#10 133755126#11 133755126#12 133755126#13 -133755126#13"/>
    </vehicle>
    <vehicle id="bus66" type="bus" depart="1980.00">
        <route edges="803243445#1 135530186#2 135530186#3 135530186#4 -374529123#1 -374529123#0 374529118#7 374529118#0 374529118#1 374529118#2 374529115 804217356#0 804217356#1 804217356#2 804217356#3 804217356#4 804217356#5 804217356#6 804207587 804207591#2"/>
    </vehicle>
    <vehicle id="bus67" type="bus" depart="2010.00">
        <route edges="-133755130#1 133755130#1 133755130#2 133755130#3 133755130#4 133755130#5 158486424#1 158486424#2 158486424#3 158486424#4 158486424#5 158486424#6 158486424#7 158486424#8 158486424#9 158486424#10 158486424#11 158486424#12 158486424#13 374533525#4 374533525#5 374529118#6 374529118#7 374529118#0 374529118#1 374529118#2 374529115 804217356#0 804217356#1 804217356#2 804217356#3 804217356#4 804217356#5 804217356#6 804217356#7 804217356#8 804217356#9 804217356#10 804217356#11 804207589#2 804207589#3 817117729#0 817117729#1 817117729#2 133755126#0 133755126#1 133755126#2 133755126#3"/>
    </vehicle>
    <vehicle id="bus68" type="bus" depart="2040.00">
        <route edges="-133755126#4 -133755126#3 -133755126#2 -133755126#1 -133755126#0 817117729#3 804207589#0 804207591#0 804207591#1 804207591#2 804207591#3 804207591#4 804207591#5 374529118#4 374529118#5 374529118#6 374529118#7 374529118#0 374529122#0 374529122#1 374532416#0 374532416#1 374532416#2 374529120#0"/>
    </vehicle>
    <vehicle id="bus69" type="bus" depart="2070.00">
        <route edges="374529120#0 -135530186#13 -135530186#12 -135530186#11 -135530186#10 -135530186#9 -135530186#8 -135530186#7 -135530186#6 -135530186#5 -135530186#4"/>
    </vehicle>
    <vehicle id="bus70" type="bus" depart="2100.00">
        <route edges="133755126#14 133755126#15 133755126#16 306475939 374529112#2 374529112#3 374533524#5 374533524#6 374533524#0 374533525#0 374533525#1 374533525#2 374533525#3 374533525#4 374533525#5 374529118#6 374529123#0 374529123#1 135530186#5 135530186#6 135530186#7"/>
    </vehicle>
    <vehicle id="bus71" type="bus" depart="2130.00">
        <route edges="-286438371#1 803758021 135530186#11 135530186#12 135530186#13 374529120#1 374529120#2 374529118#2 374529118#3 374529118#4 133055393#0 761223739 374533525#3 -158486424#13 171867130#0 171867130#1 -800610495#1 -800610495#0 800610495#0"/>
    </vehicle>
    <vehicle id="bus72" type="bus" depart="2160.00">
        <route edges="122612374#3 -122612374#3 -122612374#2 -122612374#1 -122612374#0 -122612356#0 374529112#1 374529112#2 374529112#3 374533524#5 374533524#6 374533524#0 374533525#0 374533525#1 374533525#2 374533525#3 374533525#4 374533525#5 374529118#6 374529123#0 -171870084#1 -171870084#0"/>
    </vehicle>
    <vehicle id="bus73" type="bus" depart="2190.00">
        <route edges="135530186#2 135530186#3 135530186#4 -374529123#1 -374529123#0 374529118#7 374529118#0 374529118#1 374529118#2 374529118#3 374529118#4 133055393#0 133055393#1 578203893 374533524#2 374533524#3 374533523#0 374533523#1 374529112#0"/>
    </vehicle>
    <vehicle id="bus74" type="bus" depart="2220.00">
        <route edges="-171870082 374533525#2 374533525#3 374533525#4 374533525#5 374529118#6 374529118#7 374529118#0 374529118#1 374529118#2 374529115 804217356#0 804217356#1 804217356#2 804217356#3 804217356#4 804217356#5 804217356#6 804217356#7 804217356#8 -306475943#2"/>
    </vehicle>
    <vehicle id="bus75" type="bus" depart="2250.00">
        <route edges="817117729#3 804207589#0 804207589#1 804207589#2 804207589#3 817117729#0 817117729#1 817117729#2 133755126#0 133755126#1 133755126#2 133755126#3 133755126#4 133755126#5 133755126#6 133755126#7 133755126#8 133755126#9 133755126#10 133755126#11 133755126#12 133755126#13 133755126#14 133755126#15 133755126#16 374533523#1 374529112#0 122612356#0 122612374#0 -706734275#3 -706734275#2 -706734275#1 -706734275#0 706734276#1 706734274#0 186262687#0"/>
    </vehicle>
    <vehicle id="bus76" type="bus" depart="2280.00">
        <route edges="133755117#3 -133755117#1 133755133#0"/>
    </vehicle>
    <vehicle id="bus77" type="bus" depart="2310.00">
        <route edges="-135530186#3 -171870088#1 -171870088#0"/>
    </vehicle>
    <vehicle id="bus78" type="bus" depart="2340.00">
        <route edges="-706734275#1 706734275#1 706734275#2 706734275#3 -122612374#0 -122612356#0 374529112#1 374529112#2 374529112#3 374533524#5 374533524#6 374533524#0 374533525#0 374533525#1 374533525#2 374533525#3 -158486424#13 171867130#0"/>
    </vehicle>
    <vehicle id="bus79" type="bus" depart="2370.00">
        <route edges="-186262687#0 -706734274#0 -706734276#1 706734275#0 706734275#1 706734275#2 706734275#3 -122612374#0 -122612356#0 374529112#1 374529112#2 374529112#3 374533524#5 374533524#6 374533524#0 374533525#0 374533525#1 374533525#2 374533525#3 374533525#4 171870086#0 -171870086#0"/>
    </vehicle>
    <vehicle id="bus80" type="bus" depart="2400.00">
        <route edges="-133755126#5 133755126#5 133755126#6 133755126#7 133755126#8 133755126#9 133755126#10 133755126#11 133755126#12 133755126#13 133755126#14 133755126#15 133755126#16 306475939 374529112#2 374529112#3 374533524#5 374533524#6 374533524#0 374533525#0 374533525#1 374533525#2 374533525#3 374533525#4 171870086#0"/>
    </vehicle>
    <vehicle id="bus81" type="bus" depart="2430.00">
        <route edges="-186254736#0 133755126#12 133755126#13 133755126#14 133755126#15 133755126#16 306475939 374529112#2 374529112#3 374533524#5 374533524#6 374533524#0 374533525#0 374533525#1 374533525#2 374533525#3 374533525#4 374533525#5 374529118#6 374529118#7 374529118#0 374529122#0 374529122#1 374532416#0 -135530186#12 -135530186#11 -135530186#10 -135530186#9 803758024"/>
    </vehicle>
    <vehicle id="bus82" type="bus" depart="2460.00">
        <route edges="706734276#2 706734276#3 706734276#4 706734276#0 706734275#0 706734275#1 706734275#2 706734275#3 -122612374#0 -122612356#0 374529112#1 -306475939 -133755126#16 -133755126#15 -133755126#14 -133755126#13 -133755126#12 -133755126#11 -133755126#10 -133755126#9 -133755126#8 -133755126#7 -133755126#6 -133755126#5 -133755126#4 -133755126#3"/>
    </vehicle>
    <vehicle id="bus83" type="bus" depart="2490.00">
        <route edges="-186263433#2 186263433#2 706734275#2 706734275#3 -122612374#0 -122612356#0 374529112#1 374529112#2 374529112#3 374533524#5 374533524#6 374533524#0 374533525#0 374533525#1 374533525#2 374533525#3 -158486424#13 -158486424#12 -158486424#11 246982749#0"/>
    </vehicle>
    <vehicle id="bus84" type="bus" depart="2520.00">
        <route edges="-171870086#0 374533525#5 374529118#6 374529123#0 374529123#1 135530186#5 135530186#6 -135530186#6"/>
    </vehicle>
    <vehicle id="bus85" type="bus" depart="2550.00">
        <route edges="804207590#1 804207590#2 -803757988#0 804207584#1 817117729#1 817117729#2 817117729#3 804207589#0 804207591#0 804207591#1 804207591#2 804207591#3 804207591#4 804207591#5 374529118#4 133055393#0 761223739 374533525#3 -158486424#13 -158486424#12 -158486424#11 -158486424#10 -158486424#9 -158486424#8 -158486424#7 -158486424#6 -158486424#5 -158486424#4 -158486424#3 158486424#3"/>
    </vehicle>
    <vehicle id="bus86" type="bus" depart="2580.00">
        <route edges="133755126#13 133755126#14 133755126#15 133755126#16 306475939 374529112#2 374529112#3 374533524#5 374533524#6 374533524#0 374533525#0 374533525#1 374533525#2 374533525#3 374533525#4 374533525#5 374529118#6 374529118#7 374529118#0 374529122#0 374529122#1 374532416#0 374532416#1"/>
    </vehicle>
    <vehicle id="bus87" type="bus" depart="2610.00">
        <route edges="374533524#4 374533524#5 -171867130#3 -171867130#2 -800610495#1 -800610495#0 -171867136#3 -171867136#2"/>
    </vehicle>
    <vehicle id="bus88" type="bus" depart="2640.00">
        <route edges="-133755130#5 133755130#5 158486424#1 158486424#2 158486424#3 158486424#4 158486424#5 158486424#6 158486424#7 158486424#8 158486424#9 158486424#10 158486424#11 158486424#12 158486424#13 374533525#4 374533525#5 374529118#6 374529118#7 374529118#0 374529118#1 374529118#2 374529118#3 374529118#4 133055393#0 133055393#1"/>
    </vehicle>
    <vehicle id="bus89" type="bus" depart="2670.00">
        <route edges="122612374#3 -122612374#3 -122612374#2 -122612374#1 -122612374#0 -122612356#0 374529112#1 -306475939 -133755126#16 -133755126#15 -133755126#14 -133755126#13 -133755126#12 -133755126#11 133755126#11"/>
    </vehicle>