<?xml version="1.0" encoding="UTF-8"?>

<!-- generated on Fri Nov 27 07:56:15 2020 by Eclipse SUMO netconvert Version 1.7.0
<configuration xmlns:xsi="http://www.w3.org/2001/XMLSchema-instance" xsi:noNamespaceSchemaLocation="http://sumo.dlr.de/xsd/netconvertConfiguration.xsd">

    <input>
        <osm-files value="map.osm"/>
    </input>

    <output>
        <output-file value="map.net.xml"/>
    </output>

    <projection>
        <proj.utm value="true"/>
    </projection>

    <report>
        <aggregate-warnings value="5"/>
    </report>

</configuration>
-->

<net version="1.6" junctionCornerDetail="5" limitTurnSpeed="5.50" xmlns:xsi="http://www.w3.org/2001/XMLSchema-instance" xsi:noNamespaceSchemaLocation="http://sumo.dlr.de/xsd/net_file.xsd">

    <location netOffset="-475171.97,-1474039.92" convBoundary="0.00,0.00,11669.14,3506.48" origBoundary="74.770726,13.333618,74.878474,13.365388" projParameter="+proj=utm +zone=43 +ellps=WGS84 +datum=WGS84 +units=m +no_defs"/>

    <type id="highway.bridleway" priority="1" numLanes="1" speed="2.78" allow="pedestrian" oneway="1" width="2.00"/>
    <type id="highway.bus_guideway" priority="1" numLanes="1" speed="27.78" allow="bus" oneway="1"/>
    <type id="highway.cycleway" priority="1" numLanes="1" speed="8.33" allow="bicycle" oneway="0" width="1.00"/>
    <type id="highway.footway" priority="1" numLanes="1" speed="2.78" allow="pedestrian" oneway="1" width="2.00"/>
    <type id="highway.ford" priority="1" numLanes="1" speed="2.78" allow="army" oneway="0"/>
    <type id="highway.living_street" priority="2" numLanes="1" speed="2.78" disallow="tram rail_urban rail rail_electric rail_fast ship" oneway="0"/>
    <type id="highway.motorway" priority="14" numLanes="2" speed="39.44" allow="private emergency authority army vip passenger hov taxi bus coach delivery truck trailer motorcycle evehicle custom1 custom2" oneway="1"/>
    <type id="highway.motorway_link" priority="9" numLanes="1" speed="22.22" allow="private emergency authority army vip passenger hov taxi bus coach delivery truck trailer motorcycle evehicle custom1 custom2" oneway="1"/>
    <type id="highway.path" priority="1" numLanes="1" speed="2.78" allow="pedestrian bicycle" oneway="1" width="2.00"/>
    <type id="highway.pedestrian" priority="1" numLanes="1" speed="2.78" allow="pedestrian" oneway="1" width="2.00"/>
    <type id="highway.primary" priority="12" numLanes="2" speed="27.78" disallow="tram rail_urban rail rail_electric rail_fast ship" oneway="0"/>
    <type id="highway.primary_link" priority="7" numLanes="1" speed="22.22" disallow="tram rail_urban rail rail_electric rail_fast ship" oneway="0"/>
    <type id="highway.raceway" priority="15" numLanes="2" speed="83.33" allow="vip" oneway="0"/>
    <type id="highway.residential" priority="3" numLanes="1" speed="13.89" disallow="tram rail_urban rail rail_electric rail_fast ship" oneway="0"/>
    <type id="highway.secondary" priority="11" numLanes="1" speed="27.78" disallow="tram rail_urban rail rail_electric rail_fast ship" oneway="0"/>
    <type id="highway.secondary_link" priority="6" numLanes="1" speed="22.22" disallow="tram rail_urban rail rail_electric rail_fast ship" oneway="0"/>
    <type id="highway.service" priority="1" numLanes="1" speed="5.56" allow="pedestrian delivery bicycle" oneway="0"/>
    <type id="highway.stairs" priority="1" numLanes="1" speed="1.39" allow="pedestrian" oneway="1" width="2.00"/>
    <type id="highway.step" priority="1" numLanes="1" speed="1.39" allow="pedestrian" oneway="1" width="2.00"/>
    <type id="highway.steps" priority="1" numLanes="1" speed="1.39" allow="pedestrian" oneway="1" width="2.00"/>
    <type id="highway.tertiary" priority="10" numLanes="1" speed="22.22" disallow="tram rail_urban rail rail_electric rail_fast ship" oneway="0"/>
    <type id="highway.tertiary_link" priority="5" numLanes="1" speed="22.22" disallow="tram rail_urban rail rail_electric rail_fast ship" oneway="0"/>
    <type id="highway.track" priority="1" numLanes="1" speed="5.56" allow="pedestrian motorcycle moped bicycle" oneway="0"/>
    <type id="highway.trunk" priority="13" numLanes="2" speed="27.78" disallow="pedestrian bicycle tram rail_urban rail rail_electric rail_fast ship" oneway="0"/>
    <type id="highway.trunk_link" priority="8" numLanes="1" speed="22.22" disallow="pedestrian bicycle tram rail_urban rail rail_electric rail_fast ship" oneway="0"/>
    <type id="highway.unclassified" priority="4" numLanes="1" speed="13.89" disallow="tram rail_urban rail rail_electric rail_fast ship" oneway="0"/>
    <type id="highway.unsurfaced" priority="1" numLanes="1" speed="8.33" disallow="tram rail_urban rail rail_electric rail_fast ship" oneway="0"/>
    <type id="railway.highspeed" priority="21" numLanes="1" speed="69.44" allow="rail_fast" oneway="1"/>
    <type id="railway.light_rail" priority="19" numLanes="1" speed="27.78" allow="rail_urban" oneway="1"/>
    <type id="railway.preserved" priority="16" numLanes="1" speed="27.78" allow="rail" oneway="1"/>
    <type id="railway.rail" priority="20" numLanes="1" speed="44.44" allow="rail" oneway="1"/>
    <type id="railway.subway" priority="18" numLanes="1" speed="27.78" allow="rail_urban" oneway="1"/>
    <type id="railway.tram" priority="17" numLanes="1" speed="13.89" allow="tram" oneway="1"/>

    <edge id=":1369614871_0" function="internal">
        <lane id=":1369614871_0_0" index="0" disallow="tram rail_urban rail rail_electric rail_fast ship" speed="6.10" length="9.06" shape="2354.02,1519.17 2351.47,1518.88 2349.61,1519.52 2348.44,1521.10 2347.94,1523.61"/>
    </edge>
    <edge id=":1369614871_1" function="internal">
        <lane id=":1369614871_1_0" index="0" disallow="tram rail_urban rail rail_electric rail_fast ship" speed="13.89" length="14.64" shape="2354.02,1519.17 2350.44,1518.26 2346.91,1517.44 2343.36,1516.70 2339.73,1516.04"/>
    </edge>
    <edge id=":1369614871_2" function="internal">
        <lane id=":1369614871_2_0" index="0" disallow="tram rail_urban rail rail_electric rail_fast ship" speed="3.65" length="2.34" shape="2354.02,1519.17 2353.06,1518.09 2352.88,1517.22"/>
    </edge>
    <edge id=":1369614871_9" function="internal">
        <lane id=":1369614871_9_0" index="0" disallow="tram rail_urban rail rail_electric rail_fast ship" speed="3.65" length="2.34" shape="2352.88,1517.22 2353.47,1516.55 2354.84,1516.08"/>
    </edge>
    <edge id=":1369614871_3" function="internal">
        <lane id=":1369614871_3_0" index="0" disallow="tram rail_urban rail rail_electric rail_fast ship" speed="13.89" length="14.93" shape="2340.26,1512.88 2343.94,1513.55 2347.58,1514.31 2351.21,1515.16 2354.84,1516.08"/>
    </edge>
    <edge id=":1369614871_4" function="internal">
        <lane id=":1369614871_4_0" index="0" disallow="tram rail_urban rail rail_electric rail_fast ship" speed="8.49" length="5.87" shape="2340.26,1512.88 2343.80,1514.07 2345.40,1515.49"/>
    </edge>
    <edge id=":1369614871_5" function="internal">
        <lane id=":1369614871_5_0" index="0" disallow="tram rail_urban rail rail_electric rail_fast ship" speed="3.65" length="2.34" shape="2340.26,1512.88 2341.31,1513.87 2341.57,1514.72"/>
    </edge>
    <edge id=":1369614871_10" function="internal">
        <lane id=":1369614871_10_0" index="0" disallow="tram rail_urban rail rail_electric rail_fast ship" speed="8.49" length="8.81" shape="2345.40,1515.49 2346.26,1516.25 2347.64,1519.43 2347.94,1523.61"/>
    </edge>
    <edge id=":1369614871_11" function="internal">
        <lane id=":1369614871_11_0" index="0" disallow="tram rail_urban rail rail_electric rail_fast ship" speed="3.65" length="2.34" shape="2341.57,1514.72 2341.04,1515.45 2339.73,1516.04"/>
    </edge>
    <edge id=":1369614871_6" function="internal">
        <lane id=":1369614871_6_0" index="0" disallow="tram rail_urban rail rail_electric rail_fast ship" speed="7.09" length="9.95" shape="2344.75,1523.45 2344.56,1520.55 2343.66,1518.34 2342.05,1516.84 2339.73,1516.04"/>
    </edge>
    <edge id=":1369614871_7" function="internal">
        <lane id=":1369614871_7_0" index="0" disallow="tram rail_urban rail rail_electric rail_fast ship" speed="7.68" length="15.05" shape="2344.75,1523.45 2345.56,1519.28 2347.52,1516.66 2350.61,1515.59 2354.84,1516.08"/>
    </edge>
    <edge id=":1369614871_8" function="internal">
        <lane id=":1369614871_8_0" index="0" disallow="tram rail_urban rail rail_electric rail_fast ship" speed="3.65" length="4.67" shape="2344.75,1523.45 2345.61,1522.29 2346.43,1521.93 2347.20,1522.37 2347.94,1523.61"/>
    </edge>
    <edge id=":1369615162_0" function="internal">
        <lane id=":1369615162_0_0" index="0" disallow="tram rail_urban rail rail_electric rail_fast ship" speed="9.63" length="12.34" shape="2243.05,2137.67 2239.18,2138.25 2236.12,2139.29 2233.84,2140.79 2232.36,2142.76"/>
    </edge>
    <edge id=":1369615162_1" function="internal">
        <lane id=":1369615162_1_0" index="0" disallow="tram rail_urban rail rail_electric rail_fast ship" speed="7.50" length="15.82" shape="2243.05,2137.67 2238.67,2137.35 2236.01,2135.56 2235.06,2132.29 2235.83,2127.53"/>
    </edge>
    <edge id=":1369615162_2" function="internal">
        <lane id=":1369615162_2_0" index="0" disallow="tram rail_urban rail rail_electric rail_fast ship" speed="3.65" length="4.67" shape="2243.05,2137.67 2241.78,2136.97 2241.32,2136.20 2241.65,2135.37 2242.78,2134.48"/>
    </edge>
    <edge id=":1369615162_3" function="internal">
        <lane id=":1369615162_3_0" index="0" disallow="tram rail_urban rail rail_electric rail_fast ship" speed="5.76" length="8.77" shape="2238.77,2128.87 2238.35,2131.50 2238.87,2133.31 2240.35,2134.30 2242.78,2134.48"/>
    </edge>
    <edge id=":1369615162_4" function="internal">
        <lane id=":1369615162_4_0" index="0" disallow="tram rail_urban rail rail_electric rail_fast ship" speed="13.89" length="15.32" shape="2238.77,2128.87 2237.48,2132.43 2235.86,2135.93 2234.09,2139.37 2232.36,2142.76"/>
    </edge>
    <edge id=":1369615162_5" function="internal">
        <lane id=":1369615162_5_0" index="0" disallow="tram rail_urban rail rail_electric rail_fast ship" speed="3.66" length="2.23" shape="2238.77,2128.87 2237.54,2129.64 2236.76,2129.67"/>
    </edge>
    <edge id=":1369615162_9" function="internal">
        <lane id=":1369615162_9_0" index="0" disallow="tram rail_urban rail rail_electric rail_fast ship" speed="3.66" length="2.49" shape="2236.76,2129.67 2236.64,2129.67 2236.07,2128.97 2235.83,2127.53"/>
    </edge>
    <edge id=":1369615162_6" function="internal">
        <lane id=":1369615162_6_0" index="0" disallow="tram rail_urban rail rail_electric rail_fast ship" speed="13.89" length="15.22" shape="2229.49,2141.34 2231.21,2137.97 2232.96,2134.55 2234.55,2131.08 2235.83,2127.53"/>
    </edge>
    <edge id=":1369615162_7" function="internal">
        <lane id=":1369615162_7_0" index="0" disallow="tram rail_urban rail rail_electric rail_fast ship" speed="10.78" length="5.70" shape="2229.49,2141.34 2231.44,2138.66 2233.37,2137.28"/>
    </edge>
    <edge id=":1369615162_8" function="internal">
        <lane id=":1369615162_8_0" index="0" disallow="tram rail_urban rail rail_electric rail_fast ship" speed="3.65" length="2.34" shape="2229.49,2141.34 2230.74,2140.62 2231.63,2140.62"/>
    </edge>
    <edge id=":1369615162_10" function="internal">
        <lane id=":1369615162_10_0" index="0" disallow="tram rail_urban rail rail_electric rail_fast ship" speed="10.78" length="9.93" shape="2233.37,2137.28 2234.30,2136.62 2238.08,2135.22 2242.78,2134.48"/>
    </edge>
    <edge id=":1369615162_11" function="internal">
        <lane id=":1369615162_11_0" index="0" disallow="tram rail_urban rail rail_electric rail_fast ship" speed="3.65" length="2.34" shape="2231.63,2140.62 2232.17,2141.33 2232.36,2142.76"/>
    </edge>
    <edge id=":1369615164_0" function="internal">
        <lane id=":1369615164_0_0" index="0" disallow="pedestrian bicycle tram rail_urban rail rail_electric rail_fast ship" speed="27.78" length="25.54" shape="2544.49,2335.73 2540.43,2333.55 2535.57,2329.41 2529.78,2325.11 2522.94,2322.47"/>
    </edge>
    <edge id=":1369615164_1" function="internal">
        <lane id=":1369615164_1_0" index="0" disallow="pedestrian bicycle tram rail_urban rail rail_electric rail_fast ship" speed="8.36" length="4.59" shape="2544.49,2335.73 2540.80,2334.47 2540.31,2333.99"/>
    </edge>
    <edge id=":1369615164_2" function="internal">
        <lane id=":1369615164_2_0" index="0" disallow="pedestrian bicycle tram rail_urban rail rail_electric rail_fast ship" speed="3.65" length="2.12" shape="2544.49,2335.73 2543.44,2334.75 2543.23,2334.10"/>
    </edge>
    <edge id=":1369615164_9" function="internal">
        <lane id=":1369615164_9_0" index="0" disallow="pedestrian bicycle tram rail_urban rail rail_electric rail_fast ship" speed="8.36" length="10.95" shape="2540.31,2333.99 2538.40,2332.10 2537.28,2328.62 2537.44,2324.02"/>
    </edge>
    <edge id=":1369615164_10" function="internal">
        <lane id=":1369615164_10_0" index="0" disallow="pedestrian bicycle tram rail_urban rail rail_electric rail_fast ship" speed="3.65" length="2.55" shape="2543.23,2334.10 2543.17,2333.89 2543.69,2333.17 2545.00,2332.57"/>
    </edge>
    <edge id=":1369615164_3" function="internal">
        <lane id=":1369615164_3_0" index="0" disallow="pedestrian bicycle tram rail_urban rail rail_electric rail_fast ship" speed="6.95" length="10.40" shape="2540.60,2324.52 2540.46,2327.71 2541.14,2330.11 2542.66,2331.73 2545.00,2332.57"/>
    </edge>
    <edge id=":1369615164_4" function="internal">
        <lane id=":1369615164_4_0" index="0" disallow="pedestrian bicycle tram rail_urban rail rail_electric rail_fast ship" speed="8.88" length="17.82" shape="2540.60,2324.52 2537.92,2324.64 2532.08,2323.93 2526.09,2323.00 2522.94,2322.47"/>
    </edge>
    <edge id=":1369615164_5" function="internal">
        <lane id=":1369615164_5_0" index="0" disallow="tram rail_urban rail rail_electric rail_fast ship" speed="3.65" length="4.67" shape="2540.60,2324.52 2539.63,2325.58 2538.77,2325.85 2538.04,2325.33 2537.44,2324.02"/>
    </edge>
    <edge id=":1369615164_6" function="internal">
        <lane id=":1369615164_6_0" index="0" disallow="pedestrian bicycle tram rail_urban rail rail_electric rail_fast ship" speed="12.98" length="84.51" shape="2519.80,2329.36 2551.49,2332.71 2562.27,2333.17 2552.16,2330.74 2521.16,2325.43"/>
    </edge>
    <edge id=":1369615164_7" function="internal">
        <lane id=":1369615164_7_0" index="0" disallow="pedestrian bicycle tram rail_urban rail rail_electric rail_fast ship" speed="10.04" length="22.22" shape="2519.44,2332.54 2526.70,2332.71 2532.13,2331.35 2535.71,2328.45 2537.44,2324.02"/>
    </edge>
    <edge id=":1369615164_8" function="internal">
        <lane id=":1369615164_8_0" index="0" disallow="pedestrian bicycle tram rail_urban rail rail_electric rail_fast ship" speed="27.78" length="25.59" shape="2519.44,2332.54 2526.93,2332.91 2534.10,2332.68 2540.32,2332.39 2545.00,2332.57"/>
    </edge>
    <edge id=":1369615209_0" function="internal">
        <lane id=":1369615209_0_0" index="0" disallow="tram rail_urban rail rail_electric rail_fast ship" speed="13.86" length="11.95" shape="2469.46,2033.03 2466.15,2032.96 2463.43,2033.15 2460.86,2033.88 2458.02,2035.44"/>
    </edge>
    <edge id=":1369615209_1" function="internal">
        <lane id=":1369615209_1_0" index="0" disallow="tram rail_urban rail rail_electric rail_fast ship" speed="7.66" length="5.44" shape="2469.46,2033.03 2465.24,2032.30 2464.30,2031.64"/>
    </edge>
    <edge id=":1369615209_2" function="internal">
        <lane id=":1369615209_2_0" index="0" disallow="tram rail_urban rail rail_electric rail_fast ship" speed="3.65" length="2.34" shape="2469.46,2033.03 2468.29,2032.20 2467.91,2031.39"/>
    </edge>
    <edge id=":1369615209_9" function="internal">
        <lane id=":1369615209_9_0" index="0" disallow="tram rail_urban rail rail_electric rail_fast ship" speed="7.66" length="9.69" shape="2464.30,2031.64 2462.57,2030.40 2461.48,2027.32 2461.95,2023.05"/>
    </edge>
    <edge id=":1369615209_10" function="internal">
        <lane id=":1369615209_10_0" index="0" disallow="tram rail_urban rail rail_electric rail_fast ship" speed="3.65" length="2.34" shape="2467.91,2031.39 2468.33,2030.60 2469.55,2029.83"/>
    </edge>
    <edge id=":1369615209_3" function="internal">
        <lane id=":1369615209_3_0" index="0" disallow="tram rail_urban rail rail_electric rail_fast ship" speed="6.07" length="9.07" shape="2465.04,2023.85 2464.76,2026.41 2465.42,2028.25 2467.02,2029.40 2469.55,2029.83"/>
    </edge>
    <edge id=":1369615209_4" function="internal">
        <lane id=":1369615209_4_0" index="0" disallow="tram rail_urban rail rail_electric rail_fast ship" speed="12.89" length="13.88" shape="2465.04,2023.85 2464.01,2027.32 2462.63,2030.42 2460.70,2033.14 2458.02,2035.44"/>
    </edge>
    <edge id=":1369615209_5" function="internal">
        <lane id=":1369615209_5_0" index="0" disallow="tram rail_urban rail rail_electric rail_fast ship" speed="3.65" length="4.67" shape="2465.04,2023.85 2463.97,2024.81 2463.09,2025.00 2462.42,2024.41 2461.95,2023.05"/>
    </edge>
    <edge id=":1369615209_6" function="internal">
        <lane id=":1369615209_6_0" index="0" disallow="tram rail_urban rail rail_electric rail_fast ship" speed="11.84" length="11.64" shape="2456.25,2032.77 2458.72,2030.77 2460.19,2028.69 2461.11,2026.22 2461.95,2023.05"/>
    </edge>
    <edge id=":1369615209_7" function="internal">
        <lane id=":1369615209_7_0" index="0" disallow="tram rail_urban rail rail_electric rail_fast ship" speed="13.89" length="13.85" shape="2456.25,2032.77 2459.38,2031.12 2462.59,2030.21 2465.95,2029.84 2469.55,2029.83"/>
    </edge>
    <edge id=":1369615209_8" function="internal">
        <lane id=":1369615209_8_0" index="0" disallow="tram rail_urban rail rail_electric rail_fast ship" speed="3.65" length="2.47" shape="2456.25,2032.77 2457.69,2032.77 2458.47,2033.22 2458.48,2033.35"/>
    </edge>
    <edge id=":1369615209_11" function="internal">
        <lane id=":1369615209_11_0" index="0" disallow="tram rail_urban rail rail_electric rail_fast ship" speed="3.65" length="2.20" shape="2458.48,2033.35 2458.58,2034.11 2458.02,2035.44"/>
    </edge>
    <edge id=":1464088413_0" function="internal">
        <lane id=":1464088413_0_0" index="0" disallow="pedestrian bicycle tram rail_urban rail rail_electric rail_fast ship" speed="8.18" length="4.19" shape="1452.45,1511.23 1452.50,1512.51 1452.74,1513.38 1453.23,1514.16 1454.01,1515.21"/>
        <lane id=":1464088413_0_1" index="1" disallow="pedestrian bicycle tram rail_urban rail rail_electric rail_fast ship" speed="7.79" length="4.19" shape="1449.25,1511.18 1449.17,1512.37 1449.12,1513.22 1449.29,1514.00 1449.87,1514.98"/>
    </edge>
    <edge id=":1464088413_2" function="internal">
        <lane id=":1464088413_2_0" index="0" disallow="pedestrian bicycle tram rail_urban rail rail_electric rail_fast ship" speed="7.84" length="1.25" shape="1446.37,1511.60 1447.62,1511.55"/>
    </edge>
    <edge id=":1464088413_3" function="internal">
        <lane id=":1464088413_3_0" index="0" disallow="pedestrian bicycle tram rail_urban rail rail_electric rail_fast ship" speed="4.89" length="0.80" shape="1446.97,1514.75 1447.75,1514.59"/>
    </edge>
    <edge id=":1464088413_4" function="internal">
        <lane id=":1464088413_4_0" index="0" disallow="pedestrian bicycle tram rail_urban rail rail_electric rail_fast ship" speed="7.84" length="7.68" shape="1447.62,1511.55 1448.49,1511.52 1450.47,1512.09 1452.31,1513.32 1454.01,1515.21"/>
    </edge>
    <edge id=":1464088413_5" function="internal">
        <lane id=":1464088413_5_0" index="0" disallow="pedestrian bicycle tram rail_urban rail rail_electric rail_fast ship" speed="4.89" length="2.25" shape="1447.75,1514.59 1448.56,1514.49 1449.30,1514.57 1449.87,1514.98"/>
    </edge>
    <edge id=":1464088459_0" function="internal">
        <lane id=":1464088459_0_0" index="0" disallow="pedestrian bicycle tram rail_urban rail rail_electric rail_fast ship" speed="27.78" length="9.45" shape="1538.30,1596.37 1532.26,1589.07"/>
        <lane id=":1464088459_0_1" index="1" disallow="pedestrian bicycle tram rail_urban rail rail_electric rail_fast ship" speed="27.78" length="9.45" shape="1540.75,1594.32 1534.74,1587.05"/>
    </edge>
    <edge id=":1464088459_2" function="internal">
        <lane id=":1464088459_2_0" index="0" disallow="pedestrian bicycle tram rail_urban rail rail_electric rail_fast ship" speed="6.09" length="7.79" shape="1540.75,1594.32 1539.12,1592.08 1538.31,1590.19 1538.30,1588.65 1539.10,1587.47"/>
    </edge>
    <edge id=":1464088459_3" function="internal">
        <lane id=":1464088459_3_0" index="0" disallow="pedestrian bicycle tram rail_urban rail rail_electric rail_fast ship" speed="6.07" length="7.80" shape="1541.16,1589.92 1539.85,1590.51 1538.34,1590.22 1536.64,1589.07 1534.74,1587.05"/>
    </edge>
    <edge id=":1464088459_4" function="internal">
        <lane id=":1464088459_4_0" index="0" disallow="tram rail_urban rail rail_electric rail_fast ship" speed="3.65" length="4.67" shape="1541.16,1589.92 1539.72,1590.08 1538.90,1589.72 1538.70,1588.85 1539.10,1587.47"/>
    </edge>
    <edge id=":1464095021_0" function="internal">
        <lane id=":1464095021_0_0" index="0" disallow="pedestrian bicycle tram rail_urban rail rail_electric rail_fast ship" speed="6.37" length="9.04" shape="2703.61,2362.01 2701.11,2361.94 2699.24,2362.71 2698.00,2364.30 2697.38,2366.72"/>
    </edge>
    <edge id=":1464095021_1" function="internal">
        <lane id=":1464095021_1_0" index="0" disallow="pedestrian bicycle tram rail_urban rail rail_electric rail_fast ship" speed="27.78" length="14.42" shape="2703.61,2362.01 2689.39,2359.60"/>
    </edge>
    <edge id=":1464095021_2" function="internal">
        <lane id=":1464095021_2_0" index="0" disallow="pedestrian bicycle tram rail_urban rail rail_electric rail_fast ship" speed="3.65" length="2.34" shape="2703.61,2362.01 2702.56,2361.02 2702.30,2360.16"/>
    </edge>
    <edge id=":1464095021_9" function="internal">
        <lane id=":1464095021_9_0" index="0" disallow="pedestrian bicycle tram rail_urban rail rail_electric rail_fast ship" speed="3.65" length="2.34" shape="2702.30,2360.16 2702.83,2359.44 2704.15,2358.86"/>
    </edge>
    <edge id=":1464095021_3" function="internal">
        <lane id=":1464095021_3_0" index="0" disallow="pedestrian bicycle tram rail_urban rail rail_electric rail_fast ship" speed="27.78" length="14.43" shape="2689.92,2356.45 2704.15,2358.86"/>
    </edge>
    <edge id=":1464095021_4" function="internal">
        <lane id=":1464095021_4_0" index="0" disallow="pedestrian bicycle tram rail_urban rail rail_electric rail_fast ship" speed="8.21" length="5.84" shape="2689.92,2356.45 2693.54,2357.62 2695.09,2358.95"/>
    </edge>
    <edge id=":1464095021_5" function="internal">
        <lane id=":1464095021_5_0" index="0" disallow="pedestrian bicycle tram rail_urban rail rail_electric rail_fast ship" speed="3.65" length="2.34" shape="2689.92,2356.45 2690.97,2357.44 2691.24,2358.29"/>
    </edge>
    <edge id=":1464095021_10" function="internal">
        <lane id=":1464095021_10_0" index="0" disallow="pedestrian bicycle tram rail_urban rail rail_electric rail_fast ship" speed="8.21" length="8.45" shape="2695.09,2358.95 2695.99,2359.72 2697.27,2362.76 2697.38,2366.72"/>
    </edge>
    <edge id=":1464095021_11" function="internal">
        <lane id=":1464095021_11_0" index="0" disallow="pedestrian bicycle tram rail_urban rail rail_electric rail_fast ship" speed="3.65" length="2.34" shape="2691.24,2358.29 2690.71,2359.01 2689.39,2359.60"/>
    </edge>
    <edge id=":1464095021_6" function="internal">
        <lane id=":1464095021_6_0" index="0" disallow="pedestrian bicycle tram rail_urban rail rail_electric rail_fast ship" speed="6.75" length="9.36" shape="2694.20,2366.39 2694.13,2363.76 2693.31,2361.75 2691.73,2360.37 2689.39,2359.60"/>
    </edge>
    <edge id=":1464095021_7" function="internal">
        <lane id=":1464095021_7_0" index="0" disallow="pedestrian bicycle tram rail_urban rail rail_electric rail_fast ship" speed="7.89" length="14.44" shape="2694.20,2366.39 2695.18,2362.52 2697.17,2359.97 2700.16,2358.75 2704.15,2358.86"/>
    </edge>
    <edge id=":1464095021_8" function="internal">
        <lane id=":1464095021_8_0" index="0" disallow="tram rail_urban rail rail_electric rail_fast ship" speed="3.65" length="4.67" shape="2694.20,2366.39 2695.12,2365.28 2695.96,2364.96 2696.72,2365.45 2697.38,2366.72"/>
    </edge>
    <edge id=":1464112031_0" function="internal">
        <lane id=":1464112031_0_0" index="0" disallow="tram rail_urban rail rail_electric rail_fast ship" speed="21.90" length="5.85" shape="1557.74,2766.10 1556.30,2767.08 1555.35,2767.80 1554.52,2768.65 1553.46,2770.02"/>
    </edge>
    <edge id=":1464112031_1" function="internal">
        <lane id=":1464112031_1_0" index="0" disallow="tram rail_urban rail rail_electric rail_fast ship" speed="6.51" length="2.01" shape="1553.53,2764.89 1554.04,2766.40 1554.08,2766.81"/>
    </edge>
    <edge id=":1464112031_2" function="internal">
        <lane id=":1464112031_2_0" index="0" disallow="tram rail_urban rail rail_electric rail_fast ship" speed="6.51" length="3.36" shape="1554.08,2766.81 1554.19,2767.76 1554.00,2768.97 1553.46,2770.02"/>
    </edge>
    <edge id=":1464112045_0" function="internal">
        <lane id=":1464112045_0_0" index="0" disallow="pedestrian bicycle tram rail_urban rail rail_electric rail_fast ship" speed="5.81" length="6.95" shape="1630.71,1716.97 1629.70,1714.73 1628.59,1713.27 1627.40,1712.59 1626.11,1712.68"/>
    </edge>
    <edge id=":1464112045_1" function="internal">
        <lane id=":1464112045_1_0" index="0" disallow="pedestrian bicycle tram rail_urban rail rail_electric rail_fast ship" speed="27.78" length="14.87" shape="1630.71,1716.97 1629.19,1712.90 1628.04,1710.15 1626.72,1707.48 1624.68,1703.64"/>
        <lane id=":1464112045_1_1" index="1" disallow="pedestrian bicycle tram rail_urban rail rail_electric rail_fast ship" speed="27.78" length="14.87" shape="1633.71,1715.87 1632.14,1711.67 1630.96,1708.84 1629.60,1706.08 1627.50,1702.13"/>
    </edge>
    <edge id=":1464112045_3" function="internal">
        <lane id=":1464112045_3_0" index="0" disallow="pedestrian bicycle tram rail_urban rail rail_electric rail_fast ship" speed="5.47" length="6.76" shape="1625.03,1709.67 1625.91,1708.97 1626.15,1707.73 1625.74,1705.95 1624.68,1703.64"/>
    </edge>
    <edge id=":1464112045_4" function="internal">
        <lane id=":1464112045_4_0" index="0" disallow="tram rail_urban rail rail_electric rail_fast ship" speed="3.65" length="4.67" shape="1625.03,1709.67 1626.43,1710.02 1627.07,1710.64 1626.97,1711.52 1626.11,1712.68"/>
    </edge>
    <edge id=":1464112055_0" function="internal">
        <lane id=":1464112055_0_0" index="0" disallow="tram rail_urban rail rail_electric rail_fast ship" speed="18.59" length="8.82" shape="1425.02,2137.58 1424.93,2140.19 1425.05,2141.99 1425.48,2143.73 1426.37,2146.19"/>
    </edge>
    <edge id=":1464112055_1" function="internal">
        <lane id=":1464112055_1_0" index="0" disallow="tram rail_urban rail rail_electric rail_fast ship" speed="6.25" length="7.40" shape="1425.02,2137.58 1424.75,2140.27 1424.21,2142.23 1423.39,2143.45 1422.30,2143.93"/>
    </edge>
    <edge id=":1464112055_2" function="internal">
        <lane id=":1464112055_2_0" index="0" disallow="tram rail_urban rail rail_electric rail_fast ship" speed="6.58" length="7.34" shape="1422.01,2140.74 1423.12,2141.01 1424.21,2142.00 1425.30,2143.73 1426.37,2146.19"/>
    </edge>
    <edge id=":1464112055_3" function="internal">
        <lane id=":1464112055_3_0" index="0" disallow="tram rail_urban rail rail_electric rail_fast ship" speed="3.65" length="4.67" shape="1422.01,2140.74 1423.28,2141.43 1423.75,2142.19 1423.42,2143.02 1422.30,2143.93"/>
    </edge>
    <edge id=":1464112095_0" function="internal">
        <lane id=":1464112095_0_0" index="0" disallow="tram rail_urban rail rail_electric rail_fast ship" speed="21.28" length="5.79" shape="1551.89,2781.13 1552.52,2782.72 1553.08,2783.76 1553.79,2784.71 1554.89,2786.03"/>
    </edge>
    <edge id=":1464112095_1" function="internal">
        <lane id=":1464112095_1_0" index="0" disallow="tram rail_urban rail rail_electric rail_fast ship" speed="6.23" length="5.25" shape="1551.89,2781.13 1552.13,2782.30 1551.98,2783.49 1551.44,2784.70 1550.51,2785.92"/>
    </edge>
    <edge id=":1464112150_0" function="internal">
        <lane id=":1464112150_0_0" index="0" disallow="tram rail_urban rail rail_electric rail_fast ship" speed="27.78" length="9.28" shape="1489.00,2624.59 1492.35,2633.23"/>
    </edge>
    <edge id=":1464112150_1" function="internal">
        <lane id=":1464112150_1_0" index="0" disallow="tram rail_urban rail rail_electric rail_fast ship" speed="6.20" length="7.69" shape="1489.00,2624.59 1489.71,2627.23 1489.83,2629.27 1489.35,2630.73 1488.29,2631.60"/>
    </edge>
    <edge id=":1464112150_2" function="internal">
        <lane id=":1464112150_2_0" index="0" disallow="tram rail_urban rail rail_electric rail_fast ship" speed="6.09" length="7.72" shape="1487.05,2628.65 1488.43,2628.49 1489.78,2629.21 1491.08,2630.79 1492.35,2633.23"/>
    </edge>
    <edge id=":1464112150_3" function="internal">
        <lane id=":1464112150_3_0" index="0" disallow="tram rail_urban rail rail_electric rail_fast ship" speed="3.65" length="4.67" shape="1487.05,2628.65 1488.47,2628.92 1489.14,2629.50 1489.08,2630.40 1488.29,2631.60"/>
    </edge>
    <edge id=":1464112151_0" function="internal">