<?xml version="1.0" encoding="UTF-8"?>

<!-- generated on Sat Nov 28 10:27:46 2020 by Eclipse SUMO polyconvert Version 1.7.0
<configuration xmlns:xsi="http://www.w3.org/2001/XMLSchema-instance" xsi:noNamespaceSchemaLocation="http://sumo.dlr.de/xsd/polyconvertConfiguration.xsd">

    <input>
        <net-file value="reduced_map.net.xml"/>
        <osm-files value="map.osm"/>
    </input>

    <output>
        <output-file value="reduced_map.poly.xml"/>
    </output>

    <processing>
        <poi-layer-offset value="5"/>
    </processing>

</configuration>
-->

<additional xmlns:xsi="http://www.w3.org/2001/XMLSchema-instance" xsi:noNamespaceSchemaLocation="http://sumo.dlr.de/xsd/additional_file.xsd">
    <location netOffset="-475171.97,-1474039.92" convBoundary="-963.21,-1281.58,11669.14,3697.71" origBoundary="74.761810,13.322047,74.878474,13.367035" projParameter="+proj=utm +zone=43 +ellps=WGS84 +datum=WGS84 +units=m +no_defs"/>

    <poly id="120510755" type="water" color="181,209,209" fill="1" layer="-4.00" shape="1399.259274,1007.722424 1435.970517,1082.924819 1485.718873,1144.623963 1584.393845,1195.133380 1625.502109,1208.999028 1699.815404,1214.000009 1775.794399,1229.362048 1814.187985,1222.096567 1840.232685,1210.407041 1879.965628,1135.625342 1911.858504,1073.535057 1918.522353,1052.749527 1915.814142,1038.950210 1864.506901,989.582397 1788.402339,929.508693 1770.469824,904.939921 1760.362809,875.741786 1764.025075,814.947356 1757.455870,794.515971 1723.921183,773.289378 1652.754676,751.885111 1580.114422,754.546677 1509.868375,733.307875 1419.939834,730.499608 1383.335976,741.789553 1383.958602,847.302891 1394.584512,912.254175 1399.259274,1007.722424"/>
    <poly id="133755116" type="amenity" color="237,199,199" fill="1" layer="-1.00" shape="1800.635293,2100.248070 1819.026369,2142.787358 1843.548068,2199.919298 1865.613376,2246.503071 1883.401537,2280.682312 1956.428604,2304.739721 2082.564808,2322.857854 2112.806487,2268.543617 2143.384367,2201.865170 2076.947054,2172.139462 1951.988654,2126.461308 1861.408757,2090.873307 1800.635293,2100.248070"/>
    <poly id="171870078" type="building" color="255,230,230" fill="1" layer="-1.00" shape="1506.342503,2198.595316 1508.103197,2218.499999 1516.543669,2236.684739 1529.915145,2259.465750 1545.911963,2275.332614 1556.953820,2283.971189 1563.928953,2285.701411 1562.446922,2249.915750 1556.041951,2243.860963 1554.004244,2229.143191 1544.995065,2229.438532 1539.754325,2217.322404 1538.291273,2203.466738 1538.289279,2201.166467 1506.342503,2198.595316"/>
    <poly id="171870079" type="building" color="255,230,230" fill="1" layer="-1.00" shape="1503.710946,2185.901862 1513.883557,2191.079705 1514.765937,2197.139275 1521.154842,2197.133731 1522.019138,2194.832708 1526.664880,2195.116212 1535.365673,2176.341533 1544.373623,2174.608519 1541.446200,2157.867722 1552.197821,2156.420733 1551.898941,2148.911928 1549.860152,2145.452225 1546.077945,2141.994034 1548.402353,2137.656890 1544.047730,2135.935459 1541.147898,2138.536839 1538.492485,2135.785448 1535.654307,2134.560359 1532.275117,2133.822336 1529.556831,2133.492923 1526.037415,2133.385386 1521.208170,2133.787699 1517.798231,2135.051384 1514.096263,2136.713447 1510.936266,2138.994345 1508.101275,2141.440846 1505.927217,2144.329134 1504.045726,2147.438348 1501.908438,2155.258921 1501.697943,2162.259455 1502.612535,2167.998285 1503.882522,2171.491828 1505.444087,2174.067220 1507.482122,2176.653259 1503.710946,2185.901862"/>
    <poly id="171870089" type="amenity" color="237,199,199" fill="1" layer="-1.00" shape="2257.728997,1588.890197 2252.495348,1520.516820 2160.661780,1245.811255 2173.393878,1011.117624 2344.283372,823.767578 2409.882795,871.023164 2486.045504,885.292221 2528.531981,850.454313 2640.436515,884.522956 2729.903019,1024.356541 2713.027886,1125.593347 2945.082863,1177.026814 2919.789856,1301.129276 2855.846646,1595.129462 2573.774173,1541.106133 2508.048841,1796.291662 2485.525529,1953.314963 2482.647909,1982.756409 2586.638297,1998.252250 2543.905850,2308.824352 2472.764145,2298.521182 2332.036806,2183.724590 2336.165481,2174.320982 2302.714164,2159.529950 2322.427446,2113.917169 2333.958657,2008.847014 2342.590076,1919.372488 2383.756303,1822.947844 2411.639089,1743.399321 2439.361094,1626.637448 2257.728997,1588.890197"/>
    <poly id="171870091" type="leisure" color="207,245,201" fill="1" layer="-2.00" shape="2024.988651,2437.113007 2048.237979,2450.364083 2053.462541,2443.724250 2070.601871,2453.817652 2066.546049,2459.582831 2079.201112,2468.220250 2083.841667,2462.443520 2100.136768,2473.035311 2105.565037,2476.779721 2110.778087,2469.321542 2086.291450,2452.643168 2098.761620,2434.739143 2051.979706,2406.213365 2041.240892,2422.667212 2034.556978,2419.498950 2027.892960,2427.013670 2024.412043,2433.939562 2024.988651,2437.113007"/>
    <poly id="171871047" type="water" color="181,209,209" fill="1" layer="-4.00" shape="2050.983383,1920.779302 2067.255020,1928.838584 2083.527143,1937.484001 2089.953235,1981.349617 2099.829529,1981.916329 2118.413690,1971.516212 2128.842448,1946.679944 2128.627975,1936.351019 2128.243653,1917.241392 2135.197882,1894.155385 2147.957797,1872.778625 2147.947080,1860.082902 2139.225034,1854.317468 2115.978167,1844.527775 2105.519107,1833.566091 2102.596883,1822.598035 2081.683540,1819.154263 2082.868197,1837.046722 2087.524504,1849.749571 2067.783547,1862.462017 2053.279274,1882.679100 2045.172801,1913.275167 2050.983383,1920.779302"/>
    <poly id="171902840" type="tourism" color="207,245,201" fill="1" layer="-2.00" shape="2173.845668,1225.982424 2265.879279,1184.345324 2225.446438,1110.494156 2214.411600,1110.503435 2172.022411,1131.318973 2171.776236,1186.149671 2167.729084,1215.304591 2173.845668,1225.982424"/>
    <poly id="171902845" type="tourism" color="207,245,201" fill="1" layer="-2.00" shape="2296.023260,1450.709090 2343.665113,1457.017056 2285.470034,1340.470821 2249.395591,1272.388753 2215.135575,1288.862276 2248.309616,1358.970532 2274.199819,1408.305089 2296.023260,1450.709090"/>
    <poly id="186254016" type="building" color="255,230,230" fill="1" layer="-1.00" shape="1576.570037,1977.630816 1575.989223,1969.668836 1565.128654,1970.441309 1562.454561,1933.628200 1571.376912,1932.990112 1570.817954,1925.260353 1612.062174,1922.294048 1613.201915,1937.974730 1621.669477,1937.359170 1623.105140,1957.153546 1614.767511,1957.746875 1616.005892,1974.798789 1576.570037,1977.630816"/>
    <poly id="186254017" type="building" color="255,230,230" fill="1" layer="-1.00" shape="1566.620925,2005.541296 1580.263908,2004.124994 1586.334631,2061.858803 1572.691676,2063.275103 1566.620925,2005.541296"/>
    <poly id="186254018" type="building" color="255,230,230" fill="1" layer="-1.00" shape="1578.269169,2089.115170 1608.148939,2042.906925 1585.741370,2001.952690 1602.875268,1992.703605 1627.308285,2034.231173 1674.944316,2034.776206 1675.827272,2054.106584 1625.581566,2053.574862 1596.870521,2098.908416 1578.269169,2089.115170"/>
    <poly id="186254019" type="building" color="255,230,230" fill="1" layer="-1.00" shape="1505.497538,1948.739944 1498.936514,1837.879126 1535.330279,1835.746343 1541.891163,1946.618226 1505.497538,1948.739944"/>
    <poly id="186254165" type="building" color="255,230,230" fill="1" layer="-1.00" shape="1769.418491,2128.198830 1789.460639,2126.157837 1809.830587,2178.095576 1792.417916,2190.518705 1797.657068,2200.909677 1826.098934,2182.405712 1799.605323,2111.429606 1768.248925,2115.504098 1769.418491,2128.198830"/>
    <poly id="186254168" type="building" color="255,230,230" fill="1" layer="-1.00" shape="1511.028008,1870.382101 1526.566747,1869.716140 1525.605375,1847.499436 1510.066623,1848.165397 1511.028008,1870.382101"/>
    <poly id="186254169" type="building" color="255,230,230" fill="1" layer="-1.00" shape="1475.907395,1991.707761 1508.390798,1988.450318 1503.508657,1940.425299 1490.179611,1941.763954 1493.805646,1977.326563 1474.640438,1979.256423 1475.907395,1991.707761"/>
    <poly id="186254171" type="building" color="255,230,230" fill="1" layer="-1.00" shape="1535.933318,2019.225753 1531.741452,1967.948784 1545.189823,1966.864403 1549.381663,2018.141374 1535.933318,2019.225753"/>
    <poly id="186254173" type="building" color="255,230,230" fill="1" layer="-1.00" shape="1517.136160,1933.612185 1516.258086,1920.043549 1531.071336,1919.455633 1531.949144,1932.725676 1517.136160,1933.612185"/>
    <poly id="186254175" type="building" color="255,230,230" fill="1" layer="-1.00" shape="1515.250719,1907.227037 1514.255700,1883.683282 1529.328833,1883.061962 1530.323828,1906.594659 1515.250719,1907.227037"/>
    <poly id="186254177" type="building" color="255,230,230" fill="1" layer="-1.00" shape="1484.553813,2097.258451 1482.555343,2065.443429 1510.199560,2063.727394 1508.069311,2029.767038 1544.993290,2027.478977 1547.189451,2062.578355 1518.668145,2064.339349 1520.589802,2095.037480 1484.553813,2097.258451"/>
    <poly id="186254726" type="building" color="255,230,230" fill="1" layer="-1.00" shape="1736.133017,2382.352300 1656.900719,2307.562120 1708.041540,2254.069880 1698.927246,2245.462761 1639.326090,2307.809525 1727.672679,2391.206780 1736.133017,2382.352300"/>
    <poly id="186254727" type="building" color="255,230,230" fill="1" layer="-1.00" shape="1754.903788,2312.343721 1767.258926,2324.597548 1779.885131,2312.034740 1767.529984,2299.769849 1754.903788,2312.343721"/>
    <poly id="186254728" type="building" color="255,230,230" fill="1" layer="-1.00" shape="1737.318152,2375.361989 1714.993531,2354.756144 1745.480493,2322.150096 1769.528240,2344.358043 1762.074178,2352.326927 1748.701086,2339.985505 1732.494735,2357.306779 1744.144713,2368.057177 1737.318152,2375.361989"/>
    <poly id="186254729" type="building" color="255,230,230" fill="1" layer="-1.00" shape="1726.443905,2284.499489 1739.492974,2297.770135 1751.383708,2286.225375 1738.323810,2272.954732 1726.443905,2284.499489"/>
    <poly id="186254730" type="building" color="255,230,230" fill="1" layer="-1.00" shape="1744.378384,2312.352765 1767.267908,2335.059360 1790.410534,2312.025711 1767.521012,2289.319096 1744.378384,2312.352765"/>
    <poly id="186254731" type="building" color="255,230,230" fill="1" layer="-1.00" shape="1647.050401,2249.134832 1620.228466,2249.832590 1620.519737,2261.090407 1645.165632,2261.002771 1652.024826,2253.863794 1647.050401,2249.134832"/>
    <poly id="186254732" type="building" color="255,230,230" fill="1" layer="-1.00" shape="1621.212551,2285.906218 1645.165632,2261.002771 1652.024826,2253.863794 1647.050401,2249.134832 1618.905334,2222.407399 1626.316315,2214.714988 1667.217144,2253.563156 1628.993887,2293.297971 1621.212551,2285.906218"/>
    <poly id="186254735" type="building" color="255,230,230" fill="1" layer="-1.00" shape="1715.257831,2284.376403 1739.361756,2308.884548 1762.569781,2286.348475 1738.455029,2261.840319 1715.257831,2284.376403"/>
    <poly id="186254737" type="building" color="255,230,230" fill="1" layer="-1.00" shape="1684.727923,2329.987912 1692.314095,2337.125495 1713.540622,2314.823324 1732.451825,2332.589938 1741.561281,2323.016067 1691.124121,2275.627388 1683.053270,2284.105540 1706.982235,2306.601068 1684.727923,2329.987912"/>
    <poly id="186258450" type="building" color="255,230,230" fill="1" layer="-1.00" shape="1948.564295,2161.676090 1955.150363,2164.302524 1956.587534,2160.729242 1959.425605,2161.854845 1960.290081,2159.719721 1993.242074,2172.862964 1992.690978,2174.234748 2000.501091,2177.346749 1998.339889,2182.679025 1998.599241,2182.048442 2009.799866,2186.506763 2018.477030,2165.011751 1957.100956,2140.546125 1948.564295,2161.676090"/>
    <poly id="186258451" type="amenity" color="237,199,199" fill="1" layer="-1.00" shape="1840.947415,2564.780231 1772.191957,2495.598725 1783.887009,2483.246837 1792.849160,2491.345401 1853.573681,2552.383339 1840.947415,2564.780231"/>
    <poly id="186258451#1" type="building" color="255,230,230" fill="1" layer="-1.00" shape="1840.947415,2564.780231 1772.191957,2495.598725 1783.887009,2483.246837 1792.849160,2491.345401 1853.573681,2552.383339 1840.947415,2564.780231"/>
    <poly id="186258454" type="building" color="255,230,230" fill="1" layer="-1.00" shape="1834.179705,2526.964221 1860.394013,2499.825107 1813.543963,2455.142591 1822.556147,2445.801069 1892.804065,2512.791743 1854.645637,2552.305009 1846.008267,2544.073439 1874.765023,2514.300120 1866.702031,2506.621002 1840.877200,2533.350594 1834.179705,2526.964221"/>
    <poly id="186258458" type="building" color="255,230,230" fill="1" layer="-1.00" shape="1905.129827,2262.416404 1956.830271,2229.615567 1930.134733,2188.067515 1878.434240,2220.868402 1905.129827,2262.416404"/>
    <poly id="186258461" type="building" color="255,230,230" fill="1" layer="-1.00" shape="1844.059966,2178.055210 1817.135060,2109.191725 1831.748977,2103.561238 1858.673850,2172.424736 1844.059966,2178.055210"/>
    <poly id="186258766" type="building" color="255,230,230" fill="1" layer="-1.00" shape="1949.435573,2180.243414 1967.622994,2187.405224 1961.625875,2202.428454 1975.285381,2207.802565 1981.509410,2192.193017 1992.309204,2196.452610 1999.300435,2178.907089 1956.675350,2162.122602 1949.435573,2180.243414"/>
    <poly id="186258768" type="building" color="255,230,230" fill="1" layer="-1.00" shape="1996.592956,2267.724244 2000.417407,2257.270236 2023.738619,2265.710565 2019.914151,2276.153511 1996.592956,2267.724244"/>
    <poly id="186258769" type="building" color="255,230,230" fill="1" layer="-1.00" shape="1902.472778,2283.065833 1955.301147,2290.518802 1957.615514,2274.326450 1904.787114,2266.873476 1902.472778,2283.065833"/>
    <poly id="186258770" type="building" color="255,230,230" fill="1" layer="-1.00" shape="1852.144113,2311.630007 1862.724550,2299.997945 1846.592814,2265.419175 1819.490227,2292.426348 1812.324403,2282.965979 1849.112161,2248.408271 1874.442305,2301.392423 1856.840568,2320.594843 1852.144113,2311.630007"/>
    <poly id="186258772" type="building" color="255,230,230" fill="1" layer="-1.00" shape="1946.051166,2262.348338 1966.426546,2270.249236 1958.290258,2291.002853 1976.315023,2297.987863 1984.602613,2276.869175 1988.155565,2278.237471 1995.384268,2259.829143 1996.781621,2260.369847 1993.336915,2258.957222 2001.351305,2234.886019 1992.609834,2231.642102 1988.103692,2229.964965 1982.243322,2227.525908 1973.632515,2250.591255 1953.420297,2243.563874 1946.051166,2262.348338"/>
    <poly id="186258774" type="building" color="255,230,230" fill="1" layer="-1.00" shape="2020.152496,2161.504625 1998.207131,2217.592411 2021.691464,2226.806730 2043.929319,2170.807188 2020.152496,2161.504625"/>
    <poly id="186258776" type="building" color="255,230,230" fill="1" layer="-1.00" shape="1989.459215,2295.930768 2024.848186,2309.923519 2031.915114,2292.267351 1996.526123,2278.274591 1989.459215,2295.930768"/>
    <poly id="186258778" type="building" color="255,230,230" fill="1" layer="-1.00" shape="2002.449085,2239.695753 2005.345765,2233.345424 1993.733051,2228.157561 1992.609730,2231.520453 1988.136037,2229.799052 1989.659763,2226.137226 1980.366826,2223.833797 1983.554898,2216.333082 1996.336614,2220.933819 1998.066669,2217.957477 2012.343589,2223.563321 2026.652876,2229.036437 2024.817115,2235.054093 2043.112803,2242.260097 2036.593319,2254.264646 2002.449085,2239.695753"/>
    <poly id="186258779" type="building" color="255,230,230" fill="1" layer="-1.00" shape="2027.179031,2287.582353 2054.487751,2299.104786 2061.751057,2295.924695 2056.807090,2288.707357 2066.095836,2286.100618 2060.859261,2278.607052 2068.988366,2274.840102 2065.505539,2266.769981 2073.342772,2263.589407 2068.690687,2255.796751 2079.430726,2253.476322 2072.450252,2245.409162 2048.046250,2237.058181 2027.179031,2287.582353"/>
    <poly id="186259462" type="tourism" color="207,245,201" fill="1" layer="-2.00" shape="1677.979963,2189.754477 1690.194191,2201.742975 1765.191734,2275.397809 1811.908909,2227.737665 1775.275665,2189.958342 1742.306663,2106.723411 1677.390240,2183.982185 1677.979963,2189.754477"/>
    <poly id="186259463" type="building" color="255,230,230" fill="1" layer="-1.00" shape="1639.155148,2197.595621 1657.569964,2179.553553 1665.741876,2187.785465 1660.180650,2193.242350 1689.616847,2222.910408 1695.405284,2217.232153 1702.753483,2224.635360 1688.796312,2238.316309 1654.472155,2203.720152 1649.787301,2208.302622 1639.155148,2197.595621"/>
    <poly id="186259464" type="building" color="255,230,230" fill="1" layer="-1.00" shape="1630.311082,2213.550343 1672.218502,2251.855758 1677.097677,2246.587466 1670.812114,2240.842201 1674.241597,2237.134478 1679.410945,2241.874336 1682.223769,2238.830686 1641.432572,2201.541720 1630.311082,2213.550343"/>
    <poly id="186259465" type="building" color="255,230,230" fill="1" layer="-1.00" shape="1832.627394,1814.068987 1840.715144,1761.830406 1861.335941,1764.986707 1853.248143,1817.214222 1832.627394,1814.068987"/>
    <poly id="186259466" type="building" color="255,230,230" fill="1" layer="-1.00" shape="1627.132313,2169.018473 1651.215754,2144.468812 1669.824505,2162.921302 1652.990291,2180.541755 1649.793842,2178.233181 1646.028208,2181.410364 1642.250247,2182.851296 1635.861846,2183.442937 1631.495156,2180.272773 1628.882451,2176.802502 1627.135054,2172.192406 1627.132313,2169.018473"/>
    <poly id="186259468" type="leisure" color="207,245,201" fill="1" layer="-2.00" shape="2090.218993,2487.210290 2100.136768,2473.035311 2105.565037,2476.779721 2110.778087,2469.321542 2104.688893,2465.124271 2111.178169,2455.840277 2141.309931,2476.627855 2119.700642,2507.544975 2090.218993,2487.210290"/>
    <poly id="186259822" type="building" color="255,230,230" fill="1" layer="-1.00" shape="2379.081456,2150.773651 2383.430939,2133.451622 2357.842233,2106.920354 2351.750755,2112.985782 2338.963487,2101.738421 2352.889625,2089.318569 2344.748588,2078.940980 2353.167030,2071.424876 2361.599239,2080.364554 2372.915442,2067.659361 2363.617177,2059.007938 2370.865170,2050.342682 2380.747944,2058.706085 2397.291052,2041.948943 2406.306085,2048.587877 2414.147268,2050.019004 2423.434692,2045.687188 2431.880114,2070.496541 2444.946989,2066.449116 2448.151064,2077.980983 2437.411165,2080.588796 2442.068939,2095.304443 2453.977613,2091.833056 2456.597420,2103.951537 2445.858489,2107.709483 2450.518659,2125.311527 2441.804220,2128.492721 2438.898052,2123.596006 2402.308204,2136.897324 2400.005807,2154.792708 2379.081456,2150.773651"/>
    <poly id="186259823" type="building" color="255,230,230" fill="1" layer="-1.00" shape="2359.486930,1988.875219 2361.191266,1942.127406 2367.873086,1942.696887 2368.446015,1928.551950 2389.648957,1928.821768 2390.523699,1938.928962 2388.792563,1953.649935 2389.967129,1959.709285 2388.800756,1963.459259 2385.034284,1965.773736 2378.646049,1966.641675 2377.209949,1984.536335 2359.486930,1988.875219"/>
    <poly id="186259824" type="building" color="255,230,230" fill="1" layer="-1.00" shape="2389.171514,2122.133470 2364.808665,2098.255331 2399.340347,2058.115489 2413.571670,2060.990011 2432.501675,2114.654607 2399.980750,2124.778604 2394.930708,2120.138040 2389.171514,2122.133470"/>
    <poly id="186259825" type="building" color="255,230,230" fill="1" layer="-1.00" shape="2376.257308,2036.713488 2397.291052,2041.948943 2402.111250,2017.703594 2428.441122,2023.985258 2423.434692,2045.687188 2446.386251,2052.303457 2448.414595,2043.355038 2437.952136,2041.052424 2440.745677,2027.735062 2452.756195,2029.494496 2455.075233,2018.522038 2383.808702,2002.346869 2380.429262,2014.260234 2393.209083,2016.560890 2390.273055,2027.799285 2379.734248,2024.855336 2376.257308,2036.713488"/>
    <poly id="186259862" type="tourism" color="207,245,201" fill="1" layer="-2.00" shape="2455.195083,2227.448555 2493.412605,2179.254808 2519.439975,2199.637035 2481.222436,2247.830745 2455.195083,2227.448555"/>
    <poly id="186259863" type="building" color="255,230,230" fill="1" layer="-1.00" shape="2418.349593,2219.715849 2436.072708,2215.664534 2452.024270,2190.823787 2442.143731,2185.059221 2449.390038,2174.381249 2458.405005,2181.009140 2475.517199,2158.478773 2483.373028,2164.543628 2479.870349,2145.491886 2498.451146,2144.038765 2500.497727,2157.020330 2507.764237,2157.589359 2517.349045,2159.317660 2523.740351,2162.198752 2531.292242,2167.390212 2536.527751,2173.733733 2541.768762,2186.712650 2553.682194,2189.014099 2554.268317,2203.733142 2537.712515,2205.184544 2546.143427,2212.686610 2528.153127,2234.056467 2536.290219,2239.822511 2527.592145,2249.639063 2519.737801,2245.321516 2505.521456,2260.340389 2499.713234,2255.435020 2497.387241,2258.035819 2498.851468,2273.904267 2482.296438,2276.229365 2479.678820,2266.709743 2474.155985,2266.426804 2467.191978,2264.983871 2459.338586,2261.816477 2452.079329,2256.923386 2447.137386,2252.017306 2442.779229,2245.960606 2440.446742,2240.764819 2439.858872,2237.016308 2439.565052,2235.280290 2421.278141,2238.469470 2418.349593,2219.715849"/>
    <poly id="186260306" type="building" color="255,230,230" fill="1" layer="-1.00" shape="2441.167756,1455.520115 2446.302276,1418.423973 2456.168582,1419.764956 2451.034058,1456.872155 2441.167756,1455.520115"/>
    <poly id="186260307" type="building" color="255,230,230" fill="1" layer="-1.00" shape="2454.376090,1595.018335 2460.480380,1565.142908 2481.437835,1569.372128 2475.344351,1599.247540 2454.376090,1595.018335"/>
    <poly id="186260308" type="building" color="255,230,230" fill="1" layer="-1.00" shape="2483.845343,1794.973638 2521.404644,1631.368827 2541.376857,1635.897504 2503.817442,1799.502286 2483.845343,1794.973638"/>
    <poly id="186260309" type="building" color="255,230,230" fill="1" layer="-1.00" shape="2497.239605,1363.717001 2505.762274,1324.903916 2518.402000,1327.647111 2509.879314,1366.460192 2497.239605,1363.717001"/>
    <poly id="186260310" type="building" color="255,230,230" fill="1" layer="-1.00" shape="2446.356276,1600.300153 2455.167581,1557.173795 2489.468494,1564.090311 2480.657136,1607.216658 2446.356276,1600.300153"/>
    <poly id="186260311" type="building" color="255,230,230" fill="1" layer="-1.00" shape="2486.381416,1419.784062 2494.272882,1377.255673 2525.974132,1383.057441 2518.082618,1425.585819 2486.381416,1419.784062"/>
    <poly id="186260312" type="building" color="255,230,230" fill="1" layer="-1.00" shape="2432.296568,1712.682323 2437.397149,1686.921670 2453.090725,1689.994059 2448.000949,1715.743640 2432.296568,1712.682323"/>
    <poly id="186260313" type="building" color="255,230,230" fill="1" layer="-1.00" shape="2495.689038,1413.417405 2500.680487,1386.495668 2516.666493,1389.424086 2511.675028,1416.345820 2495.689038,1413.417405"/>
    <poly id="186260314" type="landuse" color="194,194,130" fill="1" layer="-3.00" shape="2427.662093,1180.284086 2503.803962,1000.987681 2624.937291,1051.769784 2548.805597,1231.065834 2427.662093,1180.284086"/>
    <poly id="186260315" type="building" color="255,230,230" fill="1" layer="-1.00" shape="2426.124858,1453.741092 2431.237478,1416.379549 2440.399811,1417.610523 2435.287187,1454.983123 2426.124858,1453.741092"/>
    <poly id="186260316" type="building" color="255,230,230" fill="1" layer="-1.00" shape="2446.936258,1412.506883 2453.098351,1373.972219 2463.398071,1375.600378 2457.235964,1414.135040 2446.936258,1412.506883"/>
    <poly id="186260317" type="building" color="255,230,230" fill="1" layer="-1.00" shape="2443.498147,1653.142414 2448.718670,1628.343798 2466.264504,1632.000779 2461.033136,1656.799401 2443.498147,1653.142414"/>
    <poly id="186260318" type="building" color="255,230,230" fill="1" layer="-1.00" shape="2416.180325,1774.106367 2422.134539,1746.166376 2439.886112,1749.900581 2433.931880,1777.840568 2416.180325,1774.106367"/>
    <poly id="186260319" type="building" color="255,230,230" fill="1" layer="-1.00" shape="2432.012160,1410.373870 2438.293083,1371.518392 2447.704719,1373.014577 2441.412953,1411.870061 2432.012160,1410.373870"/>
    <poly id="186260320" type="building" color="255,230,230" fill="1" layer="-1.00" shape="2471.250020,1480.875467 2479.985219,1437.284707 2513.809610,1443.969413 2505.074369,1487.571221 2471.250020,1480.875467"/>
    <poly id="186260321" type="building" color="255,230,230" fill="1" layer="-1.00" shape="2423.411021,1718.606293 2431.433925,1678.101561 2461.976287,1684.070099 2453.964168,1724.574813 2423.411021,1718.606293"/>
    <poly id="186260322" type="building" color="255,230,230" fill="1" layer="-1.00" shape="2434.428460,1659.033356 2442.798606,1619.346706 2475.334207,1626.109848 2466.964025,1665.807546 2434.428460,1659.033356"/>
    <poly id="186260323" type="building" color="255,230,230" fill="1" layer="-1.00" shape="2407.521940,1779.709443 2416.496363,1737.556120 2448.544513,1744.297516 2439.570042,1786.450828 2407.521940,1779.709443"/>
    <poly id="186260324" type="building" color="255,230,230" fill="1" layer="-1.00" shape="2495.881345,1566.661727 2507.130129,1511.556472 2562.204425,1522.647196 2550.955542,1577.763485 2495.881345,1566.661727"/>
    <poly id="186260325" type="building" color="255,230,230" fill="1" layer="-1.00" shape="2481.477728,1474.087798 2486.815907,1447.442244 2503.581884,1450.757070 2498.243689,1477.402621 2481.477728,1474.087798"/>
    <poly id="186262681" type="building" color="255,230,230" fill="1" layer="-1.00" shape="2617.021483,1209.389056 2635.344134,1117.440534 2694.697146,1129.114132 2676.374301,1221.062612 2617.021483,1209.389056"/>
    <poly id="186262681#1" type="tourism" color="207,245,201" fill="1" layer="-2.00" shape="2617.021483,1209.389056 2635.344134,1117.440534 2694.697146,1129.114132 2676.374301,1221.062612 2617.021483,1209.389056"/>
    <poly id="186262683" type="building" color="255,230,230" fill="1" layer="-1.00" shape="2533.578999,929.555078 2520.492088,897.085680 2554.993302,883.354991 2568.080177,915.824404 2533.578999,929.555078"/>
    <poly id="186262684" type="building" color="255,230,230" fill="1" layer="-1.00" shape="2609.843083,961.950082 2597.362118,928.761313 2630.142780,916.591460 2642.623700,949.769184 2609.843083,961.950082"/>
    <poly id="186262685" type="leisure" color="207,245,201" fill="1" layer="-2.00" shape="2459.498917,1153.505875 2496.389311,1057.118215 2504.512144,1045.278350 2512.055490,1039.797887 2519.902522,1034.881183 2527.741123,1032.850885 2536.457368,1031.405988 2545.163977,1031.398770 2557.078157,1033.987761 2567.532547,1039.165769 2575.963336,1046.092777 2581.786209,1055.322214 2587.027170,1068.013599 2587.903524,1080.133527 2587.329741,1093.415849 2549.064359,1177.429510 2541.805964,1186.968377 2533.386703,1193.898287 2522.940495,1198.518552 2511.907614,1200.839038 2500.861030,1199.698076 2493.312219,1198.543152 2483.724677,1193.939520 2476.172746,1189.035606 2468.607592,1181.256367 2465.115595,1175.198944 2461.914297,1167.117484 2460.165297,1160.483544 2459.498917,1153.505875"/>
    <poly id="186262692" type="building" color="255,230,230" fill="1" layer="-1.00" shape="2632.293338,1199.777238 2637.100946,1172.944157 2667.751666,1178.359896 2662.944037,1205.204030 2632.293338,1199.777238"/>
    <poly id="186262692#1" type="tourism" color="207,245,201" fill="1" layer="-2.00" shape="2632.293338,1199.777238 2637.100946,1172.944157 2667.751666,1178.359896 2662.944037,1205.204030 2632.293338,1199.777238"/>
    <poly id="186262699" type="building" color="255,230,230" fill="1" layer="-1.00" shape="2674.721049,1304.260765 2670.214742,1302.517158 2676.190487,1287.107058 2673.883288,1286.356948 2674.995459,1282.452207 2678.612541,1282.681466 2680.673329,1273.511864 2678.063180,1273.082714 2678.308694,1268.769505 2681.427096,1268.335635 2683.690358,1255.184630 2689.125053,1253.388597 2687.732469,1232.388720 2695.431484,1231.862607 2697.777790,1253.801714 2693.554534,1253.882604 2691.100424,1285.137334 2685.749589,1283.560305 2685.134349,1286.004849 2687.852996,1286.688267 2678.039417,1309.953411 2682.513399,1311.896107 2667.467626,1332.975886 2662.148009,1329.850578 2663.997433,1327.017951 2660.324625,1324.864476 2674.721049,1304.260765"/>
    <poly id="186262699#1" type="tourism" color="207,245,201" fill="1" layer="-2.00" shape="2674.721049,1304.260765 2670.214742,1302.517158 2676.190487,1287.107058 2673.883288,1286.356948 2674.995459,1282.452207 2678.612541,1282.681466 2680.673329,1273.511864 2678.063180,1273.082714 2678.308694,1268.769505 2681.427096,1268.335635 2683.690358,1255.184630 2689.125053,1253.388597 2687.732469,1232.388720 2695.431484,1231.862607 2697.777790,1253.801714 2693.554534,1253.882604 2691.100424,1285.137334 2685.749589,1283.560305 2685.134349,1286.004849 2687.852996,1286.688267 2678.039417,1309.953411 2682.513399,1311.896107 2667.467626,1332.975886 2662.148009,1329.850578 2663.997433,1327.017951 2660.324625,1324.864476 2674.721049,1304.260765"/>
    <poly id="186262700" type="leisure" color="207,245,201" fill="1" layer="-2.00" shape="2471.562967,1154.059848 2506.876430,1062.583707 2513.084818,1053.521240 2518.680098,1049.457947 2524.622187,1045.726137 2530.197996,1044.294902 2537.430842,1043.083474 2543.895821,1043.078115 2553.134721,1045.083195 2561.086557,1049.024667 2567.014118,1053.896773 2571.286398,1060.672397 2575.431436,1070.721588 2576.132435,1080.309152 2575.686180,1090.660737 2538.890886,1171.421852 2533.255091,1178.836050 2527.130020,1183.872971 2519.292666,1187.351998 2511.280553,1189.028556 2502.367471,1188.107001 2496.843956,1187.271105 2489.520585,1183.749372 2483.702239,1179.972032 2478.087970,1174.181787 2475.745518,1170.125085 2473.108530,1163.480824 2471.576776,1157.642950 2471.562967,1154.059848"/>
    <poly id="186262701" type="landuse" color="194,194,130" fill="1" layer="-3.00" shape="2384.358227,1156.211601 2345.951195,1082.933634 2377.601740,1066.462465 2391.512778,1035.275555 2459.791019,1062.058832 2422.982142,1152.142851 2384.358227,1156.211601"/>