<?xml version="1.0" encoding="UTF-8"?>

<!-- generated on Sat Nov 28 10:27:45 2020 by Eclipse SUMO duarouter Version 1.7.0
<configuration xmlns:xsi="http://www.w3.org/2001/XMLSchema-instance" xsi:noNamespaceSchemaLocation="http://sumo.dlr.de/xsd/duarouterConfiguration.xsd">

    <input>
        <net-file value="reduced_map.net.xml"/>
        <route-files value="trailer_trips.xml"/>
    </input>

    <output>
        <output-file value="trailer_routes.rou.xml"/>
        <alternatives-output value="trailer_routes.rou.alt.xml"/>
    </output>

    <time>
        <begin value="0"/>
        <end value="3600"/>
    </time>

    <report>
        <no-warnings value="true"/>
        <ignore-errors value="true"/>
        <no-step-log value="true"/>
    </report>

</configuration>
-->

<routes xmlns:xsi="http://www.w3.org/2001/XMLSchema-instance" xsi:noNamespaceSchemaLocation="http://sumo.dlr.de/xsd/routes_file.xsd">
    <vType id="trailer" vClass="trailer" color="223,179,180" accel="0.5"/>
    <vehicle id="trailer0" type="trailer" depart="0.00">
        <route edges="171870088#0 171870088#1 135530186#3 135530186#4 -374529123#1 -374529123#0 374529118#7 374529118#0 374529118#1 374529118#2 374529115 804217356#0 804217356#1 804207585 804207591#4 -374530997#1 -588939865 -133755118#5 -133755118#4 -133755118#3 -133755118#2 -133755118#1 -133755118#0"/>
    </vehicle>
    <vehicle id="trailer1" type="trailer" depart="150.00">
        <route edges="-288926324#3 288926324#3 288926324#4 -706734276#1 706734275#0 706734275#1 706734275#2 706734275#3 -122612374#0 -122612356#0 374529112#1 374529112#2 374529112#3 374533524#5 374533524#6 374533524#0 374533525#0 374533525#1 374533525#2 374533525#3 374533525#4 374533525#5 374529118#6 374529123#0 374529123#1 -135530186#4 -135530186#3 -171870088#1 -171870088#0"/>
    </vehicle>
    <vehicle id="trailer2" type="trailer" depart="300.00">
        <route edges="374529112#1 374529112#2 374529112#3 374533524#5 374533524#6 374533524#0 374533525#0 374533525#1 374533525#2 374533525#3 -158486424#13 -158486424#12 -158486424#11 -158486424#10 246982755#0"/>
    </vehicle>
    <vehicle id="trailer3" type="trailer" depart="450.00">
        <route edges="803757988#3 804207590#1 804207590#2 -803757988#0 804207584#1 817117729#1 817117729#2 817117729#3 804207589#0 804207591#0 804207591#1 804207591#2 804207591#3 804207591#4 804207591#5 374529118#4 133055393#0 761223739 374533525#3 -158486424#13 -158486424#12 -158486424#11 -158486424#10 -158486424#9 -158486424#8 -158486424#7 -158486424#6 -158486424#5 -158486424#4 -158486424#3 -158486424#2 -158486424#1 -133755130#5 -133755130#4 -133755130#3 -133755130#2 -133755130#1 -133755130#0"/>
    </vehicle>
    <vehicle id="trailer4" type="trailer" depart="600.00">
        <route edges="122612374#2 -122612374#2 -122612374#1 -122612374#0 -122612356#0 374529112#1 -306475939 -133755126#16 -133755126#15 -133755126#14 -133755126#13 -133755126#12 -133755126#11 -133755126#10 -133755126#9 -133755126#8 -133755126#7 -133755126#6 -186254733#1 706318011 -133755118#2"/>
    </vehicle>
    <vehicle id="trailer5" type="trailer" depart="750.00">
        <route edges="-171870088#1 171870088#1 -135530186#2 -135530186#1 133755130#0 133755130#1"/>
    </vehicle>
    <vehicle id="trailer6" type="trailer" depart="900.00">
        <route edges="-133755118#0 -133755126#1 -133755126#0 817117729#3 804207589#0 804207591#0 804207591#1 804207591#2 804207591#3 804207591#4 804207591#5 374529118#4 133055393#0 761223739 374533525#3 374533525#4 171870086#0 171870085#0 -171870075#1"/>
    </vehicle>
    <vehicle id="trailer7" type="trailer" depart="1050.00">
        <route edges="186254733#1 -186254733#1 706318011 133755118#3 133755118#4 133755118#5 588939865 374530997#1 804207591#5 374529118#4 374529118#5 374529118#6 374529123#0 374529123#1 135530186#5"/>
    </vehicle>
    <vehicle id="trailer8" type="trailer" depart="1200.00">
        <route edges="-186254733#0 133755126#7 133755126#8 133755126#9 133755126#10 133755126#11 133755126#12 133755126#13 133755126#14 133755126#15 133755126#16 306475939 374529112#2 374529112#3 374533524#5 -171867130#3 -171867130#2 -171867130#1 171867130#1"/>
    </vehicle>
    <vehicle id="trailer9" type="trailer" depart="1350.00">
        <route edges="374533524#5 374533524#6 374533524#0 374533524#1 374533524#2 374533524#3 374533523#0 374533523#1 374529112#0 122612356#0 122612374#0 -122612374#0"/>
    </vehicle>
    <vehicle id="trailer10" type="trailer" depart="1500.00">
        <route edges="374533524#3 374533523#0 306475939"/>
    </vehicle>
    <vehicle id="trailer11" type="trailer" depart="1650.00">
        <route edges="-706734275#2 706734275#2 706734275#3 -122612374#0 -122612356#0 374529112#1 374529112#2 374529112#3 374533524#5 374533524#6 374533524#0 374533525#0 374533525#1 374533525#2 374533525#3 -158486424#13"/>
    </vehicle>
    <vehicle id="trailer12" type="trailer" depart="1800.00">
        <route edges="804217356#0 804217356#1 804207585 804207591#4 804207591#5 374529118#4 133055393#0 133055393#1 578203893 374533524#2 374533524#3 374533523#0 374533523#1 374529112#0 122612356#0 122612374#0 -706734275#3 -706734275#2 -706734275#1 -706734275#0 706734276#1 706734274#0 -706734274#0"/>
    </vehicle>
    <vehicle id="trailer13" type="trailer" depart="1950.00">
        <route edges="-133755130#3 133755130#3 133755130#4 -133755130#4"/>
    </vehicle>
    <vehicle id="trailer14" type="trailer" depart="2100.00">
        <route edges="706734275#1 706734275#2 706734275#3 -122612374#0 122612356#1 171867136#1 171867136#2 171867136#3"/>
    </vehicle>
    <vehicle id="trailer15" type="trailer" depart="2250.00">
        <route edges="374533524#4 374533524#5 374533524#6 374533524#0 374533524#1 374533524#2 374533524#3 374533523#0 374533523#1 374529112#0"/>
    </vehicle>
    <vehicle id="trailer16" type="trailer" depart="2400.00">
        <route edges="135530186#13 374529120#1 374529120#2 374529118#2 374529115 804217356#0 804217356#1 804217356#2 804217356#3 804217356#4 804217356#5"/>
    </vehicle>
    <vehicle id="trailer17" type="trailer" depart="2550.00">
        <route edges="-803757988#0 804207584#1 817117729#1 817117729#2 817117729#3 804207589#0 804207591#0 804207591#1 804207591#2 804207591#3 804207591#4 804207591#5 374529118#4 374529118#5 374529118#6 374529118#7 374529118#0 374529122#0 374529122#1 374532416#0 -135530186#12 -135530186#11 -135530186#10 -135530186#9 -135530186#8 135530186#8"/>
    </vehicle>
    <vehicle id="trailer18" type="trailer" depart="2700.00">
        <route edges="578203893 374533524#2 374533524#3 374533524#4 374533524#5 374533524#6 374533524#0 374533525#0 374533525#1 374533525#2 374533525#3 374533525#4 374533525#5 374529118#6 374529123#0 -171870084#1 171870081#1"/>
    </vehicle>
    <vehicle id="trailer19" type="trailer" depart="2850.00">
        <route edges="706734276#3 706734276#4 706734276#0 706734275#0 706734275#1 706734275#2 706734275#3 -122612374#0 -122612356#0 374529112#1 374529112#2 374529112#3 374533524#5 374533524#6 374533524#0 374533525#0 374533525#1 374533525#2 374533525#3 -158486424#13 -158486424#12 -158486424#11 -158486424#10 -158486424#9 -158486424#8 -158486424#7 -158486424#6 158486424#6"/>
    </vehicle>
    <vehicle id="trailer20" type="trailer" depart="3000.00">
        <route edges="306475940#0 306475940#1 804217356#4 804217356#5 804217356#6 804217356#7 804217356#8 804217356#9 804217356#10 804217356#11 804207589#2 804207589#3 817117729#0 817117729#1 817117729#2 133755126#0 -133755126#0"/>
    </vehicle>
    <vehicle id="trailer21" type="trailer" depart="3150.00">
        <route edges="-186254736#0 -133755126#11 -133755126#10 -133755126#9 -133755126#8 -133755126#7 -133755126#6 -133755126#5 -133755126#4 -133755126#3 -133755126#2 -133755126#1 -133755126#0 817117729#3 804207589#0 804207591#0 804207591#1 804207591#2 804207591#3 -804207585 804217356#2 804217356#3 -306475940#1 -306475940#0"/>
    </vehicle>
    <vehicle id="trailer22" type="trailer" depart="3300.00">
        <route edges="-133755126#8 -133755126#7 -133755126#6 -186254733#1"/>
    </vehicle>
    <vehicle id="trailer23" type="trailer" depart="3450.00">
        <route edges="-133755133#1 133755124 133755126#3 133755126#4 133755126#5 133755126#6 133755126#7 133755126#8 133755126#9 133755126#10 133755126#11 133755126#12 133755126#13 133755126#14 133755126#15 133755126#16 374533523#1 374529112#0 122612356#0 122612374#0 -706734275#3 -706734275#2 -706734275#1 -706734275#0 706734276#1 -288926324#4 -288926324#3 -288926324#2 -288926324#1"/>
    </vehicle>
</routes>
