<?xml version="1.0" encoding="UTF-8"?>
<!-- generated on 2020-12-29 11:02:33.724004 by randomTrips.py v1_7_0+0000-714814baed
  options: -n osm.net.xml -r delivery_routes.rou.xml -o delivery_trips.xml -e 3600 -p 30 <doubleminus>vehicle-class delivery <doubleminus>trip-attributes=color="115,211,230"
-->
<routes xmlns:xsi="http://www.w3.org/2001/XMLSchema-instance" xsi:noNamespaceSchemaLocation="http://sumo.dlr.de/xsd/routes_file.xsd">
    <vType id="delivery" vClass="delivery" color="115,211,230"/>
    <trip id="0" depart="0.00" from="374529120#4" to="-133755118#1" type="delivery"/>
    <trip id="1" depart="30.00" from="-706734276#0" to="-288926324#3" type="delivery"/>
    <trip id="2" depart="60.00" from="374533524#5" to="374530997#0" type="delivery"/>
    <trip id="3" depart="90.00" from="gneE27" to="-133755126#8" type="delivery"/>
    <trip id="4" depart="120.00" from="133755126#3" to="-133755118#3" type="delivery"/>
    <trip id="5" depart="150.00" from="-288926324#2" to="171867130#3" type="delivery"/>
    <trip id="6" depart="180.00" from="-133755118#2" to="-186263433#0" type="delivery"/>
    <trip id="7" depart="210.00" from="374529120#8" to="186250480#1" type="delivery"/>
    <trip id="8" depart="240.00" from="-288926324#3" to="374529112#3" type="delivery"/>
    <trip id="9" depart="270.00" from="706734276#4" to="-122612374#0" type="delivery"/>
    <trip id="10" depart="300.00" from="706734276#3" to="374532416#2" type="delivery"/>
    <trip id="11" depart="330.00" from="-gneE77" to="-171867136#1" type="delivery"/>
    <trip id="12" depart="360.00" from="gneE63" to="-gneE3" type="delivery"/>
    <trip id="13" depart="390.00" from="-135530186#0" to="-135530186#1" type="delivery"/>
    <trip id="14" depart="420.00" from="804217356#1" to="374529118#3" type="delivery"/>
    <trip id="15" depart="450.00" from="706734276#4" to="374533524#3" type="delivery"/>
    <trip id="16" depart="480.00" from="171870086#0" to="gneE70" type="delivery"/>
    <trip id="17" depart="510.00" from="133755118#2" to="186250480#3" type="delivery"/>
    <trip id="18" depart="540.00" from="804207582" to="374529118#7" type="delivery"/>
    <trip id="19" depart="570.00" from="804217356#6" to="288926324#3" type="delivery"/>
    <trip id="20" depart="600.00" from="374532416#5" to="-133755126#10" type="delivery"/>
    <trip id="21" depart="630.00" from="-288926324#5" to="-800610494" type="delivery"/>
    <trip id="22" depart="660.00" from="-133755126#6" to="-374529123#0" type="delivery"/>
    <trip id="23" depart="690.00" from="-135530186#2" to="-706734276#0" type="delivery"/>
    <trip id="24" depart="720.00" from="374529120#3" to="133055393#0" type="delivery"/>
    <trip id="25" depart="750.00" from="133755118#0" to="-186263438#0" type="delivery"/>
    <trip id="26" depart="780.00" from="-706734275#2" to="gneE56" type="delivery"/>
    <trip id="27" depart="810.00" from="374529120#7" to="374529118#5" type="delivery"/>
    <trip id="28" depart="840.00" from="-171870082" to="374533524#3" type="delivery"/>
    <trip id="29" depart="870.00" from="-171867136#3" to="133755118#2" type="delivery"/>
    <trip id="30" depart="900.00" from="gneE75" to="374529120#3" type="delivery"/>
    <trip id="31" depart="930.00" from="186263433#1" to="374532416#1" type="delivery"/>
    <trip id="32" depart="960.00" from="804207591#0" to="706318004#0" type="delivery"/>
    <trip id="33" depart="990.00" from="-288926324#5" to="-133755118#3" type="delivery"/>
    <trip id="34" depart="1020.00" from="-817230302" to="-706734275#2" type="delivery"/>
    <trip id="35" depart="1050.00" from="-186263438#0" to="gneE58" type="delivery"/>
    <trip id="36" depart="1080.00" from="817230302" to="-804207582" type="delivery"/>
    <trip id="37" depart="1110.00" from="374529120#9" to="133755126#1" type="delivery"/>
    <trip id="38" depart="1140.00" from="gneE51" to="158486424#0" type="delivery"/>
    <trip id="39" depart="1170.00" from="-706734275#1" to="-588939865" type="delivery"/>
    <trip id="40" depart="1200.00" from="186263433#2" to="-706734275#0" type="delivery"/>
    <trip id="41" depart="1230.00" from="374529112#3" to="gneE3" type="delivery"/>
    <trip id="42" depart="1260.00" from="133755126#10" to="-288926324#2" type="delivery"/>
    <trip id="43" depart="1290.00" from="gneE77" to="171867136#1" type="delivery"/>
    <trip id="44" depart="1320.00" from="-133755126#9" to="-133755126#10" type="delivery"/>
    <trip id="45" depart="1350.00" from="-158486424#4" to="374529120#10" type="delivery"/>
    <trip id="46" depart="1380.00" from="706734275#3" to="133755126#3" type="delivery"/>
    <trip id="47" depart="1410.00" from="-133755126#2" to="133755118#3" type="delivery"/>
    <trip id="48" depart="1440.00" from="gneE76" to="171870085#0" type="delivery"/>
    <trip id="49" depart="1470.00" from="gneE70" to="804217356#3" type="delivery"/>
    <trip id="50" depart="1500.00" from="-122612374#2" to="374532416#9" type="delivery"/>
    <trip id="51" depart="1530.00" from="374532416#1" to="171870086#0" type="delivery"/>
    <trip id="52" depart="1560.00" from="-706734275#2" to="374529120#3" type="delivery"/>
    <trip id="53" depart="1590.00" from="-158486424#4" to="133755126#6" type="delivery"/>
    <trip id="54" depart="1620.00" from="135530186#2" to="gneE61" type="delivery"/>
    <trip id="55" depart="1650.00" from="817117729#1" to="-706734275#0" type="delivery"/>
    <trip id="56" depart="1680.00" from="171867130#3" to="-171870085#1" type="delivery"/>
    <trip id="57" depart="1710.00" from="gneE51" to="804217356#8" type="delivery"/>
    <trip id="58" depart="1740.00" from="-800610495#1" to="374529120#3" type="delivery"/>
    <trip id="59" depart="1770.00" from="374529118#5" to="-171867136#0" type="delivery"/>
    <trip id="60" depart="1800.00" from="374533525#5" to="186250480#0" type="delivery"/>
    <trip id="61" depart="1830.00" from="706318005" to="171870085#0" type="delivery"/>
    <trip id="62" depart="1860.00" from="-122612356#1" to="-gneE1" type="delivery"/>
    <trip id="63" depart="1890.00" from="-133755118#0" to="gneE54" type="delivery"/>
    <trip id="64" depart="1920.00" from="817230302" to="804207582" type="delivery"/>
    <trip id="65" depart="1950.00" from="-804207576" to="-133755126#14" type="delivery"/>
    <trip id="66" depart="1980.00" from="817230302" to="gneE59" type="delivery"/>
    <trip id="67" depart="2010.00" from="-133755126#8" to="158486424#9" type="delivery"/>
    <trip id="68" depart="2040.00" from="-133755126#3" to="374533525#4" type="delivery"/>
    <trip id="69" depart="2070.00" from="543878926#1" to="-158486424#9" type="delivery"/>
    <trip id="70" depart="2100.00" from="158486424#7" to="186250480#3" type="delivery"/>
    <trip id="71" depart="2130.00" from="-706734275#1" to="804217356#9" type="delivery"/>
    <trip id="72" depart="2160.00" from="133755126#3" to="-186263438#0" type="delivery"/>
    <trip id="73" depart="2190.00" from="186250480#0" to="374533524#3" type="delivery"/>
    <trip id="74" depart="2220.00" from="-186263433#1" to="-804207582" type="delivery"/>
    <trip id="75" depart="2250.00" from="gneE76" to="374529120#7" type="delivery"/>
    <trip id="76" depart="2280.00" from="133755126#8" to="171867136#3" type="delivery"/>
    <trip id="77" depart="2310.00" from="-158486424#7" to="-288926324#4" type="delivery"/>
    <trip id="78" depart="2340.00" from="-gneE76" to="374529112#3" type="delivery"/>
    <trip id="79" depart="2370.00" from="-374529123#0" to="-288926324#3" type="delivery"/>
    <trip id="80" depart="2400.00" from="-133755126#4" to="374529120#11" type="delivery"/>
    <trip id="81" depart="2430.00" from="-288926324#5" to="gneE46" type="delivery"/>
    <trip id="82" depart="2460.00" from="804217356#4" to="-133755126#4" type="delivery"/>
    <trip id="83" depart="2490.00" from="-374530997#0" to="374529123#0" type="delivery"/>
    <trip id="84" depart="2520.00" from="-186263438#1" to="-171867126#7" type="delivery"/>
    <trip id="85" depart="2550.00" from="gneE57" to="186263438#1" type="delivery"/>
    <trip id="86" depart="2580.00" from="158486424#6" to="706734275#0" type="delivery"/>
    <trip id="87" depart="2610.00" from="706734276#4" to="-186250480#1" type="delivery"/>
    <trip id="88" depart="2640.00" from="-135530186#1" to="133755126#5" type="delivery"/>
    <trip id="89" depart="2670.00" from="133755126#4" to="158486424#4" type="delivery"/>
    <trip id="90" depart="2700.00" from="374533524#3" to="374529123#1" type="delivery"/>
    <trip id="91" depart="2730.00" from="gneE73" to="-135530186#1" type="delivery"/>
    <trip id="92" depart="2760.00" from="133755126#11" to="-gneE76" type="delivery"/>
    <trip id="93" depart="2790.00" from="804217356#6" to="-588939865" type="delivery"/>
    <trip id="94" depart="2820.00" from="-186250480#2" to="135530186#0" type="delivery"/>
    <trip id="95" depart="2850.00" from="133755126#3" to="-706734276#1" type="delivery"/>
    <trip id="96" depart="2880.00" from="-706318004#0" to="gneE53" type="delivery"/>
    <trip id="97" depart="2910.00" from="133755126#9" to="804217356#4" type="delivery"/>
    <trip id="98" depart="2940.00" from="186250480#3" to="-133755126#11" type="delivery"/>
    <trip id="99" depart="2970.00" from="gneE77" to="804207589#1" type="delivery"/>
    <trip id="100" depart="3000.00" from="gneE69" to="gneE53" type="delivery"/>
    <trip id="101" depart="3030.00" from="804217356#1" to="-171867136#4" type="delivery"/>
    <trip id="102" depart="3060.00" from="171867126#7" to="-186263438#1" type="delivery"/>
    <trip id="103" depart="3090.00" from="133755126#10" to="-133755126#15" type="delivery"/>
    <trip id="104" depart="3120.00" from="133755118#2" to="gneE73" type="delivery"/>
    <trip id="105" depart="3150.00" from="-706734275#1" to="706734275#0" type="delivery"/>
    <trip id="106" depart="3180.00" from="135530186#2" to="133755126#3" type="delivery"/>
    <trip id="107" depart="3210.00" from="gneE63" to="gneE76" type="delivery"/>
    <trip id="108" depart="3240.00" from="186263433#1" to="374532416#9" type="delivery"/>
    <trip id="109" depart="3270.00" from="-171867136#1" to="-800610495#1" type="delivery"/>
    <trip id="110" depart="3300.00" from="gneE69" to="288926324#4" type="delivery"/>
    <trip id="111" depart="3330.00" from="186250480#1" to="374533525#1" type="delivery"/>
    <trip id="112" depart="3360.00" from="-133755126#14" to="288926324#5" type="delivery"/>
    <trip id="113" depart="3390.00" from="171867130#3" to="804217356#1" type="delivery"/>
    <trip id="114" depart="3420.00" from="-171867136#2" to="gneE63" type="delivery"/>
    <trip id="115" depart="3450.00" from="-133755126#6" to="-186250480#0" type="delivery"/>
    <trip id="116" depart="3480.00" from="374529118#2" to="374530997#0" type="delivery"/>
    <trip id="117" depart="3510.00" from="-374529123#1" to="-158486424#6" type="delivery"/>
    <trip id="118" depart="3540.00" from="gneE2" to="-588939865" type="delivery"/>
    <trip id="119" depart="3570.00" from="374529118#1" to="374529120#0" type="delivery"/>
</routes>
