<?xml version="1.0" encoding="UTF-8"?>

<!-- generated on Thu Dec 24 17:38:33 2020 by Eclipse SUMO duarouter Version 1.7.0
<configuration xmlns:xsi="http://www.w3.org/2001/XMLSchema-instance" xsi:noNamespaceSchemaLocation="http://sumo.dlr.de/xsd/duarouterConfiguration.xsd">

    <input>
        <net-file value="/home/shashwath/Sumo/2020-12-24-17-38-13/osm.net.xml"/>
        <route-files value="/home/shashwath/Sumo/2020-12-24-17-38-13/osm.motorcycle.trips.xml"/>
    </input>

    <output>
        <output-file value="routes.rou.xml"/>
        <alternatives-output value="routes.rou.alt.xml"/>
    </output>

    <time>
        <begin value="0"/>
        <end value="3600"/>
    </time>

    <report>
        <no-warnings value="true"/>
        <ignore-errors value="true"/>
        <no-step-log value="true"/>
    </report>

</configuration>
-->

<routes xmlns:xsi="http://www.w3.org/2001/XMLSchema-instance" xsi:noNamespaceSchemaLocation="http://sumo.dlr.de/xsd/routes_file.xsd">
    <vType id="moto_motorcycle" vClass="motorcycle"/>
    <vehicle id="moto0" type="moto_motorcycle" depart="0.00" departLane="best">
        <route edges="173655932#1 -173655932#1 173655938#5 173655926#1 173655926#2 173655926#3 186250792#1 -186250480#5 -133637887#0"/>
    </vehicle>
    <vehicle id="moto1" type="moto_motorcycle" depart="3.33" departLane="best">
        <route edges="-288926324#0 288926324#0 288926324#1 288926324#2 288926324#3 288926324#4 288926324#5 706734274#0 186262687#0 186262687#1 186262687#2 186262687#4 -186262687#4"/>
    </vehicle>
    <vehicle id="moto2" type="moto_motorcycle" depart="6.67" departLane="best">
        <route edges="246989087#0 -246989087#0 171867135#1 373896382#12 373896382#13 373896382#14 374529112#0 374529112#1 -133755126#16 -133755126#15 -133755126#14 -133755126#13 186254736#0 -186258455#2 -186258455#1 -186258455#0 186258455#0 186258455#1"/>
    </vehicle>
    <vehicle id="moto3" type="moto_motorcycle" depart="10.00" departLane="best">
        <route edges="800384389 -800384389 800384388 -171865797#8 -171865797#7 -171865797#6 -171865797#5 -171865797#4 -171865797#3 -171865797#2 -171865797#1 -171865797#0"/>
    </vehicle>
    <vehicle id="moto4" type="moto_motorcycle" depart="13.34" departLane="best">
        <route edges="-186262687#14 -186262687#12 -186262687#11 -186262687#10 -186262687#9 -186262687#8 -186262687#7 -186262687#6 -186262688#2 -186262688#1 -186262688#0 -186262687#0 -706734274#0 706734276#2 706734276#3 171867136#0 171867136#1 171867136#2 171867136#3"/>
    </vehicle>
    <vehicle id="moto5" type="moto_motorcycle" depart="16.67" departLane="best">
        <route edges="374529120#6 374529120#7 374532416#5 374532416#6 374532416#7 374532416#9 -133637487#5 -133637487#4 -133637487#3 -133637487#2 -133637484#0"/>
    </vehicle>
    <vehicle id="moto6" type="moto_motorcycle" depart="20.01" departLane="best">
        <route edges="-706734275#1 -706734275#0 -706734276#0 -706734276#3 -171867126#7 -171902839#4"/>
    </vehicle>
    <vehicle id="moto7" type="moto_motorcycle" depart="23.34" departLane="best">
        <route edges="-171865797#4 -171865797#3 -171865797#2 171865800 -171865800"/>
    </vehicle>
    <vehicle id="moto8" type="moto_motorcycle" depart="26.68" departLane="best">
        <route edges="706318005 -706318005 -706318004#0 133755126#14 133755126#15 133755126#16 374529112#2 374529112#3 374533524#5 374533524#6 374533525#0 374533525#1 374533525#2 374533525#3 374533525#4 171870086#0 171870085#0 171870085#1"/>
    </vehicle>
    <vehicle id="moto9" type="moto_motorcycle" depart="30.01" departLane="best">
        <route edges="374529120#12 374529118#2 374529118#3 374529118#4 374529118#5 374529118#6 374529123#0 171870084#2 171870084#3 -246982749#2 246982751"/>
    </vehicle>
    <vehicle id="moto10" type="moto_motorcycle" depart="33.35" departLane="best">
        <route edges="-800610482#0 800610482#0 800610482#1 800610480 373896382#2 373896382#3 373896382#5 373896382#6 373896382#7 373896382#8 373896382#9 171865792#0 171865792#2"/>
    </vehicle>
    <vehicle id="moto11" type="moto_motorcycle" depart="36.68" departLane="best">
        <route edges="374533524#1 374533524#2 374533524#3 374533524#4 374533524#5 -171867130#3 -171867130#2 -800610495#1 -800610495#0 -171867136#3 -171867136#2 800715314 -171902839#1 171902839#1"/>
    </vehicle>
    <vehicle id="moto12" type="moto_motorcycle" depart="40.02" departLane="best">
        <route edges="713329439 -713329439 -186254736#7 -186254736#6 -186254736#5 -186254736#4 -186254736#3 -186254736#1 -186254736#0 133755126#13 133755126#14 133755126#15 133755126#16 374533523#1 -373896382#14 -373896382#13 -373896382#12 171865797#0 171865797#1 171865797#2 171867128"/>
    </vehicle>
    <vehicle id="moto13" type="moto_motorcycle" depart="43.35" departLane="best">
        <route edges="186276679#0 186276679#1 -133755126#4 -133755126#3"/>
    </vehicle>
    <vehicle id="moto14" type="moto_motorcycle" depart="46.69" departLane="best">
        <route edges="-171865792#10 -171865792#8 -171865792#7 -171865792#5 -171865792#3 -171865792#2 -171865792#0 373896382#10 373896382#12 373896382#13 373896382#14 -122612374#4 -122612374#3 -122612374#2 186263433#0 -186263433#0"/>
    </vehicle>
    <vehicle id="moto15" type="moto_motorcycle" depart="50.02" departLane="best">
        <route edges="-171867126#5 171867126#5 171867126#6 171867126#7 -706734276#2 -288926324#5 -288926324#4 -288926324#3"/>
    </vehicle>
    <vehicle id="moto16" type="moto_motorcycle" depart="53.36" departLane="best">
        <route edges="-246989083#2 -246989083#1 -246989083#0 373896382#7 373896382#8 373896382#9 373896382#10 171865797#0 171865797#1 171865797#2 171865797#3 171865797#4 171865797#5 171865797#6 171865797#7 171865797#8 236471196 288926324#0 288926324#1 288926324#2 288926324#3 236471193#0 800669878"/>
    </vehicle>
    <vehicle id="moto17" type="moto_motorcycle" depart="56.69" departLane="best">
        <route edges="-173655926#6 186250799#0 374529120#8 374529120#9 374529120#10 -135530186#10 803758022 171870084#1 171870084#2 171870084#3 -246982749#2 246982749#2"/>
    </vehicle>
    <vehicle id="moto18" type="moto_motorcycle" depart="60.03" departLane="best">
        <route edges="171865797#0 171865797#1 171865797#2 171865797#3 171865797#4 171865797#5 171865797#6 171865797#7 171865797#8 236471196 288926324#0 288926324#1 288926324#2 288926324#3 288926324#4 288926324#5 706734274#0 186262687#0 186262688#0 186262688#1 186262688#2 186262687#6 186262687#7 186262687#8 186262687#9 186262687#10"/>
    </vehicle>
    <vehicle id="moto19" type="moto_motorcycle" depart="63.36" departLane="best">
        <route edges="578203893 374533524#2 374533524#3 374533523#0 -133755126#16 -133755126#15 -133755126#14 -133755126#13 -133755126#11 -133755126#10 -133755126#9 706318010 -186258459 306475946#2 306475946#3 306475946#4 306475947#0 306475947#1"/>
    </vehicle>
    <vehicle id="moto20" type="moto_motorcycle" depart="66.69" departLane="best">
        <route edges="-373896382#14 -373896382#13 -373896382#12 -373896382#10 -373896382#9 -373896382#8 -373896382#7 246989083#0 246989083#1 246989083#2 246989083#3 -246989083#3"/>
    </vehicle>
    <vehicle id="moto21" type="moto_motorcycle" depart="70.03" departLane="best">
        <route edges="720452476 -171865797#4 -171865797#3 -171865797#2 -171865797#1 -171865797#0 373896382#12 373896382#13 -373896382#13"/>
    </vehicle>
    <vehicle id="moto22" type="moto_motorcycle" depart="73.36" departLane="best">
        <route edges="-246989083#0 373896382#7 373896382#8 373896382#9 373896382#10 171865797#0 171865797#1 171865797#2 171865797#3 171865797#4 171865797#5 171865797#6 171865797#7 171865797#8 236471196 288926324#0 288926324#1 288926324#2 288926324#3 236471193#0 236471193#1 -236471193#1"/>
    </vehicle>
    <vehicle id="moto23" type="moto_motorcycle" depart="76.70" departLane="best">
        <route edges="171865797#3 171865797#4 171865797#5 171865797#6 171865797#7 171865797#8 236471196 288926324#0 288926324#1 288926324#2 288926324#3 288926324#4 288926324#5 706734276#2 -171867126#7 -171902839#4 -171902839#3 -171902839#2 -171902839#1 -171902839#0 158486424#3 158486424#4 158486424#5 246982755#0 -246982755#0"/>
    </vehicle>
    <vehicle id="moto24" type="moto_motorcycle" depart="80.03" departLane="best">
        <route edges="171867132 -171865792#5 -171865792#3 -171865792#2 -171865792#0 -373896382#9 -373896382#8 -373896382#7 -373896382#6 -373896382#5 -373896382#3 -373896382#2 -800610480 -800610482#1 800610481"/>
    </vehicle>
    <vehicle id="moto25" type="moto_motorcycle" depart="83.37" departLane="best">
        <route edges="-800610499 800610499 -800610497 171865797#8 236471196 288926324#0 288926324#1 288926324#2 288926324#3 288926324#4 288926324#5 706734274#0 186262687#0 186262688#0 186262688#1 186262688#2 186262687#6 186262687#7 186262687#8 186262687#9 186262687#10 186262687#11 186262687#12 -186262687#12"/>
    </vehicle>
    <vehicle id="moto26" type="moto_motorcycle" depart="86.70" departLane="best">
        <route edges="817117729#1 804207589#1 804207589#2 133755126#0 133755126#1 133755126#2 133755126#3 133755126#4 133755126#5 133755126#6 133755126#7 133755126#8 133755126#9 133755126#10 133755126#11"/>
    </vehicle>
    <vehicle id="moto27" type="moto_motorcycle" depart="90.04" departLane="best">
        <route edges="-171865797#2 -171865797#1 -171865797#0 373896382#12 373896382#13 373896382#14 374529112#0 374529112#1 -133755126#16 -133755126#15 -133755126#14 -133755126#13 -133755126#11 -133755126#10 -133755126#9 -133755126#8 -133755126#7 -133755126#6 -133755126#5"/>
    </vehicle>
    <vehicle id="moto28" type="moto_motorcycle" depart="93.37" departLane="best">
        <route edges="-171867130#1 -171867130#0 -158486424#8 -158486424#7 -158486424#6 -158486424#5 -158486424#4 -158486424#3 -158486424#2 171902842#0 171902842#1 -171867126#2 -171867126#1 171904517"/>
    </vehicle>
    <vehicle id="moto29" type="moto_motorcycle" depart="96.71" departLane="best">
        <route edges="373896382#9 373896382#10 171865797#0 171865797#1 171865797#2 171865797#3 171865797#4 171865797#5 171865797#6 -171867131#2 800669888 -800669888"/>
    </vehicle>
    <vehicle id="moto30" type="moto_motorcycle" depart="100.04" departLane="best">
        <route edges="812556708 -812556708 803758029#1 -245441027#5 -245441027#4 -245441027#2 -245441027#1 -245441027#0 245441809#0 245441809#1 374529120#10 -135530186#10 135530186#10"/>
    </vehicle>
    <vehicle id="moto31" type="moto_motorcycle" depart="103.38" departLane="best">
        <route edges="171902829#1 -171902829#1 171902839#1 -171902839#1"/>
    </vehicle>
    <vehicle id="moto32" type="moto_motorcycle" depart="106.71" departLane="best">
        <route edges="306475942#0 -306475942#0 804217356#6 804217356#8 804217356#9 804217356#11 804207589#2 133755126#0 133755126#1 133755118#0 133755118#1 133755118#2 133755118#3 133755118#4 133755118#5 -374530997#0 374533525#3 -158486424#9 -158486424#8 -158486424#7 -158486424#6 -158486424#5 -158486424#4 158486424#4"/>
    </vehicle>
    <vehicle id="moto33" type="moto_motorcycle" depart="110.05" departLane="best">
        <route edges="-122612356#0 374529112#1 374529112#2 374529112#3 374533524#5 374533524#6 374533525#0 374533525#1 374533525#2 374530997#0 -374530997#0"/>
    </vehicle>
    <vehicle id="moto34" type="moto_motorcycle" depart="113.38" departLane="best">
        <route edges="800384377 171867135#1 373896382#12 373896382#13 373896382#14 374529112#0 374529112#1 374529112#2 374529112#3 374533524#5 374533524#6 374533524#1 374533524#2 374533524#3"/>
    </vehicle>
    <vehicle id="moto35" type="moto_motorcycle" depart="116.72" departLane="best">
        <route edges="-158486424#3 158486424#3 158486424#4 158486424#5 158486424#6 158486424#7 -171870085#1 -171870085#0 -171870086#0 374533525#5 374529118#6 374529118#7 374529118#1 374529118#2 374529115 804217356#1 306475941#0 306475941#1"/>
    </vehicle>
    <vehicle id="moto36" type="moto_motorcycle" depart="120.05" departLane="best">
        <route edges="306475943#1 306475943#2 804217356#9 804217356#11 804207589#2 817117729#1 804207591#0 804207591#5 374529118#4 374529118#5 374529118#6 374529123#0 374529123#1 -135530186#2 171870076#0 -171870076#0"/>
    </vehicle>
    <vehicle id="moto38" type="moto_motorcycle" depart="126.72" departLane="best">
        <route edges="-800715313 800715313 -246989087#0 171867135#1 373896382#12 373896382#13 373896382#14 374529112#0 374529112#1 -133755126#16 -133755126#15 -133755126#14 -133755126#13 186254736#0 186254736#1 186254736#3 -186258456"/>
    </vehicle>
    <vehicle id="moto39" type="moto_motorcycle" depart="130.06" departLane="best">
        <route edges="158486424#3 158486424#4 158486424#5 158486424#6 246982749#0 246982749#1 246982751"/>
    </vehicle>
    <vehicle id="moto40" type="moto_motorcycle" depart="133.39" departLane="best">
        <route edges="812556707#1 -812556707#1 -812556707#0 173655938#4 173655938#5 173655926#1 173655926#2 173655926#3 186250792#1 -186250480#5 -186250480#4 -186250480#3 -186250480#2 186250480#2"/>
    </vehicle>
    <vehicle id="moto41" type="moto_motorcycle" depart="136.72" departLane="best">
        <route edges="-171867136#2 -171867136#1 -171867136#0 -706734276#3 -706734276#2 706734274#0 186262687#0 186262688#0 186262688#1 186262688#2 186262687#6 -186262687#6"/>
    </vehicle>
    <vehicle id="moto42" type="moto_motorcycle" depart="140.06" departLane="best">
        <route edges="-706734274#2 706734274#2 171867126#7 706734276#3 171867136#0 171867136#1 171867136#2"/>
    </vehicle>
    <vehicle id="moto43" type="moto_motorcycle" depart="143.39" departLane="best">
        <route edges="-186262688#2 186262688#2 186262687#6 186262687#7 186262687#8 186262687#9 290646814 -290520225#0 -186262687#15 -186262687#14"/>
    </vehicle>
    <vehicle id="moto44" type="moto_motorcycle" depart="146.73" departLane="best">
        <route edges="-158486424#5 -158486424#4 -158486424#3 -158486424#2 171902842#0 171902842#1 171904519#0 171904519#1 171904519#2"/>
    </vehicle>
    <vehicle id="moto45" type="moto_motorcycle" depart="150.06" departLane="best">
        <route edges="706734276#3 171867136#0 171867136#1 800715314 -171902839#1 -171902839#0 158486424#3 158486424#4 158486424#5 -158486424#5"/>
    </vehicle>
    <vehicle id="moto46" type="moto_motorcycle" depart="153.40" departLane="best">
        <route edges="-186276679#1 -186254736#6 -186254736#5 186254736#5"/>
    </vehicle>
    <vehicle id="moto47" type="moto_motorcycle" depart="156.73" departLane="best">
        <route edges="-186258462#0 133755126#15 133755126#16 374529112#2 374529112#3 374533524#5 -171867130#3 -171870082"/>
    </vehicle>
    <vehicle id="moto48" type="moto_motorcycle" depart="160.07" departLane="best">
        <route edges="800669877 -800669877 171902835#1 171867126#5"/>
    </vehicle>
    <vehicle id="moto49" type="moto_motorcycle" depart="163.40" departLane="best">
        <route edges="122612374#2 122612374#3 122612374#4 -373896382#14 -373896382#13 373896382#13"/>
    </vehicle>
    <vehicle id="moto50" type="moto_motorcycle" depart="166.74" departLane="best">
        <route edges="374529120#3 -186250795"/>
    </vehicle>
    <vehicle id="moto51" type="moto_motorcycle" depart="170.07" departLane="best">
        <route edges="-800715314 -171867136#1 -171867136#0 706734276#4 706734275#0 817230302 -817230302"/>
    </vehicle>
    <vehicle id="moto52" type="moto_motorcycle" depart="173.41" departLane="best">
        <route edges="-186250795 -173655926#2 -173655926#1 -173655938#5 -173655938#4 -173655938#3 803758035#0 803758035#1 -803758035#1"/>
    </vehicle>
    <vehicle id="moto53" type="moto_motorcycle" depart="176.74" departLane="best">
        <route edges="-800669888 171867131#2 171865797#7 171865797#8 236471196 288926324#0 288926324#1 288926324#2 288926324#3 288926324#4 -288926324#4"/>
    </vehicle>
    <vehicle id="moto54" type="moto_motorcycle" depart="180.08" departLane="best">
        <route edges="-246989083#0 373896382#7 373896382#8 373896382#9 373896382#10 373896382#12"/>
    </vehicle>
    <vehicle id="moto55" type="moto_motorcycle" depart="183.41" departLane="best">
        <route edges="803758018 -803758018 -133637883#0 133637887#2 374532416#4 -186250799#0 -173655926#5 -173655926#4 -173655926#3 -173655926#2 -173655926#1 -173655938#5 -173655938#4 186250794#1 812556707#1"/>
    </vehicle>
    <vehicle id="moto56" type="moto_motorcycle" depart="186.75" departLane="best">
        <route edges="158486424#7 -158486424#7 -158486424#6 -158486424#5 -158486424#4 -158486424#3 171902839#0 171902839#1 171902839#2 171902839#3 171902839#4 171867126#7 -706734276#2 -288926324#5 -288926324#4 -288926324#3 -288926324#2 288926324#2"/>
    </vehicle>
    <vehicle id="moto57" type="moto_motorcycle" depart="190.08" departLane="best">
        <route edges="-133882909#3 133882909#3 373896382#1 373896382#2 373896382#3 373896382#5 373896382#6 373896382#7 373896382#8 373896382#9 171865792#0 171865792#2 171865792#3 171865792#5 171865792#7 171865792#8 171865792#10 171865792#11 171865792#12 -171867127#2 -171867127#1 -171867127#0 171867131#1 171867131#2"/>
    </vehicle>
    <vehicle id="moto58" type="moto_motorcycle" depart="193.42" departLane="best">
        <route edges="-171902842#0 158486424#2 158486424#3 158486424#4 158486424#5 158486424#6 246982749#0 246982749#1 246982749#2 -171870084#3 -171870084#2 -171870084#1 -171870084#0 803758022"/>
    </vehicle>
    <vehicle id="moto59" type="moto_motorcycle" depart="196.75" departLane="best">
        <route edges="171870075#1 -171870085#0 -171870086#0 374533525#5 374529118#6 374529118#7 374529118#1 374529118#2 374529118#3 374529118#4 133055393#0 374530997#0 -588939865 -133755118#4 -133755118#3 -706318011 186254733#1 133755126#6 133755126#7 133755126#8 133755126#9 186258453"/>
    </vehicle>
    <vehicle id="moto60" type="moto_motorcycle" depart="200.08" departLane="best">
        <route edges="-186263438#0 -706734275#2 -706734275#1 -706734275#0 -706734276#0 171867136#0 171867136#1 -171867136#1"/>
    </vehicle>
    <vehicle id="moto61" type="moto_motorcycle" depart="203.42" departLane="best">
        <route edges="800384387#3 -800384387#3 -800384387#2 -800384387#1 -800384387#0 800384388 236471196 288926324#0 288926324#1 288926324#2 288926324#3 236471193#0 236471193#1 -236471193#1"/>
    </vehicle>
    <vehicle id="moto62" type="moto_motorcycle" depart="206.75" departLane="best">
        <route edges="171870075#1 171870085#1 -158486424#7 -158486424#6 -158486424#5 -158486424#4 -158486424#3 171902839#0 171902839#1 171902839#2"/>
    </vehicle>
    <vehicle id="moto63" type="moto_motorcycle" depart="210.09" departLane="best">
        <route edges="-800669885 800669885 -800610485#0 133882909#3 373896382#1 373896382#2 373896382#3 373896382#5 373896382#6 373896382#7 373896382#8 373896382#9 171865792#0 171865792#2 171865792#3 171865792#5 171865792#7 171865792#8 171865792#10 171865792#11 171865792#12 -171867127#2 -171867127#1 -171867127#0 171867131#1 171867131#2"/>
    </vehicle>
    <vehicle id="moto64" type="moto_motorcycle" depart="213.42" departLane="best">
        <route edges="-186276679#1 186276679#1 133755126#5 133755126#6 133755126#7 133755126#8 133755126#9 133755126#10 133755126#11 133755126#13 133755126#14 133755126#15 133755126#16 374529112#2 -171867136#4 800610495#0 800610496 -800610496"/>
    </vehicle>
    <vehicle id="moto65" type="moto_motorcycle" depart="216.76" departLane="best">
        <route edges="186254736#8 186276679#0 -186254736#6 -186254736#5 -186254736#4 -186258456 -306475946#2 -306475946#1 -306475946#0"/>
    </vehicle>
    <vehicle id="moto66" type="moto_motorcycle" depart="220.09" departLane="best">
        <route edges="-158486424#7 158486424#7 158486424#8 171867130#0 171867130#1 171867130#2 171867130#3 374533524#6 374533524#1 374533524#2 374533524#3 374533523#0 -133755126#16 -133755126#15 -133755126#14 -133755126#13 -133755126#11 -133755126#10 -133755126#9 706318010 -186258459"/>
    </vehicle>
    <vehicle id="moto67" type="moto_motorcycle" depart="223.43" departLane="best">
        <route edges="800384380 -800384380 800384378"/>
    </vehicle>
    <vehicle id="moto68" type="moto_motorcycle" depart="226.76" departLane="best">
        <route edges="-800384387#1 -800384387#0 800384388 236471196 288926324#0 288926324#1 288926324#2 288926324#3 288926324#4 288926324#5 706734276#2 -171867126#7 -171867126#6 -171867126#5 -171867126#4 -171902842#1 -171902842#0"/>
    </vehicle>
    <vehicle id="moto69" type="moto_motorcycle" depart="230.10" departLane="best">
        <route edges="374533524#5 374533524#6 374533524#1 374533524#2 374533524#3 374533523#0 374533523#1 374529112#0 122612356#0 122612374#0 -706734275#3 186263438#0 186263438#1"/>
    </vehicle>
    <vehicle id="moto70" type="moto_motorcycle" depart="233.43" departLane="best">
        <route edges="186250792#0 186250792#1 374532416#6 374532416#7 374532416#9 374532416#10 133637488 -133637484#1"/>
    </vehicle>
    <vehicle id="moto71" type="moto_motorcycle" depart="236.77" departLane="best">
        <route edges="374530997#1 -374530997#1 -374530997#0 133055393#1 578203893 374533524#2 374533524#3 374533523#0 -133755126#16 -133755126#15 186258462#0 186258462#1 306475945 -306475945"/>
    </vehicle>
    <vehicle id="moto72" type="moto_motorcycle" depart="240.10" departLane="best">
        <route edges="-171867128 -171865797#2 -171865797#1 171865779 171865792#2 171865792#3"/>
    </vehicle>
    <vehicle id="moto73" type="moto_motorcycle" depart="243.44" departLane="best">
        <route edges="-286438371#0 286438371#0 803758021 803758022 171870084#1 171870084#2 -171870086#1 171870086#1"/>
    </vehicle>
    <vehicle id="moto74" type="moto_motorcycle" depart="246.77" departLane="best">
        <route edges="706318004#0 -706318004#0 133755126#14 133755126#15 133755126#16 374533523#1 -373896382#14 -373896382#13 -373896382#12 171865797#0 171865797#1 171865797#2 171865797#3 171865797#4 -171865797#4"/>
    </vehicle>
    <vehicle id="moto75" type="moto_motorcycle" depart="250.11" departLane="best">
        <route edges="-800715314 -171867136#1 -171867136#0 -706734276#3 -706734276#2 -288926324#5 -288926324#4 -288926324#3 -288926324#2 -288926324#1"/>
    </vehicle>
    <vehicle id="moto76" type="moto_motorcycle" depart="253.44" departLane="best">
        <route edges="-122612374#2 -122612374#1 -122612374#0 -122612356#0 374529112#1 -133755126#16 -133755126#15 -133755126#14 -133755126#13 186254736#0 -186258455#2 -186258455#1 306475946#0 306475946#1"/>
    </vehicle>
    <vehicle id="moto77" type="moto_motorcycle" depart="256.78" departLane="best">
        <route edges="173655926#6 173655926#7 245441809#0 245441809#1 374529120#10 -135530186#10 803758022 171870084#1 171870084#2 171870084#3 -246982749#2 246982751 -246982751"/>
    </vehicle>
    <vehicle id="moto78" type="moto_motorcycle" depart="260.11" departLane="best">
        <route edges="246989098#1 -800610511 -246989098#0 -246989083#0 373896382#7 373896382#8 373896382#9 171865792#0 171865792#2 171865792#3 171865792#5 171865792#7 171865792#8 171865792#10 171865792#11 171865792#12"/>
    </vehicle>
    <vehicle id="moto79" type="moto_motorcycle" depart="263.45" departLane="best">
        <route edges="-171865779 171865779 171865792#2 800384382"/>
    </vehicle>
    <vehicle id="moto80" type="moto_motorcycle" depart="266.78" departLane="best">
        <route edges="800610485#1 -800610485#1 -800610485#0 133882909#3 373896382#1 373896382#2 373896382#3 373896382#5 373896382#6 373896382#7 373896382#8 373896382#9 171865792#0 171865792#2 171865792#3 171865792#5 171865787"/>
    </vehicle>
    <vehicle id="moto81" type="moto_motorcycle" depart="270.11" departLane="best">
        <route edges="-171902835#3 171902835#3 171902835#4 158486424#2 158486424#3 158486424#4 158486424#5 158486424#6 158486424#7 -171870085#1 -171870075#1"/>
    </vehicle>
    <vehicle id="moto82" type="moto_motorcycle" depart="273.45" departLane="best">
        <route edges="-306475949 171867138#1 -373896382#12 -373896382#10 -373896382#9 -373896382#8 -373896382#7 -373896382#6 -373896382#5 -373896382#3 -373896382#2 -800610480 -800610482#1 -800610482#0 800610482#0"/>
    </vehicle>
    <vehicle id="moto83" type="moto_motorcycle" depart="276.78" departLane="best">
        <route edges="374529115 804217356#1 804217356#3 804217356#4 804217356#6 804217356#8 804217356#9 804217356#11 804207589#2 133755126#0 133755126#1 133755126#2 133755126#3 133755126#4 133755126#5 133755126#6 133755126#7 133755126#8 133755126#9 133755126#10 133755126#11 133755126#13 133755126#14 133755126#15 133755126#16 374529112#2 -171867136#4 -171867136#3 -171867136#2 -171867136#1 -171867136#0 706734276#4"/>
    </vehicle>
    <vehicle id="moto84" type="moto_motorcycle" depart="280.12" departLane="best">
        <route edges="-800610509#4 800610509#4 800610509#5 171867138#1 373896382#13 373896382#14 374529112#0 122612356#0 122612356#1 171867136#1 800715314 171902839#2 171902839#3"/>
    </vehicle>
    <vehicle id="moto85" type="moto_motorcycle" depart="283.45" departLane="best">
        <route edges="373896382#3 373896382#5 373896382#6 373896382#7 373896382#8 373896382#9 373896382#10 171865797#0 171865797#1 171865797#2 171865797#3 -171867129"/>
    </vehicle>
    <vehicle id="moto86" type="moto_motorcycle" depart="286.79" departLane="best">
        <route edges="-186262687#2 -800669877 171902835#1 171902835#2 171902835#3 171902835#4 158486424#2 158486424#3 158486424#4 158486424#5 158486424#6 158486424#7 -171870085#1 -171870085#0 -171870086#0 374533525#5 374529118#6 374529118#7 374529118#1 374529118#2 374529118#3 374529118#4 133055393#0 374530997#0"/>
    </vehicle>
    <vehicle id="moto87" type="moto_motorcycle" depart="290.12" departLane="best">
        <route edges="374529112#3 374533524#5 -171867130#3 -171867130#2 -800610495#1 -800610495#0 -171867136#3 -171867136#2 -171867136#1 -171867136#0 -706734276#3 -706734276#2 706734274#0 186262687#0 186262688#0 186262688#1 186262688#2 186262687#6 186262687#7 186262687#8 186262687#9 -186262687#9"/>
    </vehicle>
    <vehicle id="moto88" type="moto_motorcycle" depart="293.46" departLane="best">
        <route edges="-133637885 186250480#1 186250480#2 186250480#3 186250480#4 186250480#5 374529120#6 -186250797#1"/>
    </vehicle>
    <vehicle id="moto89" type="moto_motorcycle" depart="296.79" departLane="best">
        <route edges="-646246743 373896382#8 373896382#9 373896382#10 373896382#12 373896382#13 373896382#14 374529112#0 374529112#1 -133755126#16 -133755126#15 -133755126#14 -133755126#13 -133755126#11 -133755126#10 -133755126#9 706318010 -186258459 306475946#2 306475946#3 306475946#4 306475947#0 306475947#1 306475947#2 -714381033 -713329445#0 713329445#0"/>
    </vehicle>
    <vehicle id="moto90" type="moto_motorcycle" depart="300.13" departLane="best">
        <route edges="800669881 -236471192#0 236471188#0 236471188#1 -236471196 -171865797#8 -171865797#7 -171867131#2 -171867131#1 171867127#0 171867127#1 171867127#2 -171865792#12 -171865792#11 -171865792#10 -171865792#8 -171865792#7 -171867132"/>
    </vehicle>
    <vehicle id="moto91" type="moto_motorcycle" depart="303.46" departLane="best">
        <route edges="803758035#0 -803758035#0 173655938#3 173655938#4 -173655938#4"/>
    </vehicle>
    <vehicle id="moto92" type="moto_motorcycle" depart="306.80" departLane="best">
        <route edges="171870086#2 -171870086#2 -171870084#2 -374529123#0 374529118#7 374529118#1 374529118#2 374529118#3 374529118#4 133055393#0 133055393#1 578203893 374533524#2 374533524#3 374533523#0 -133755126#16 -133755126#15 -133755126#14 133755126#14"/>
    </vehicle>
    <vehicle id="moto93" type="moto_motorcycle" depart="310.13" departLane="best">
        <route edges="-800610486 800610486 373896382#3 373896382#5 373896382#6 373896382#7 373896382#8 373896382#9 373896382#10 171865797#0 171865797#1 171865797#2 171867128"/>
    </vehicle>
    <vehicle id="moto94" type="moto_motorcycle" depart="313.47" departLane="best">
        <route edges="-122612356#1 -122612356#0 374529112#1 -133755126#16 -133755126#15 186258462#0 186258462#1 306475945 800610509#3 800610509#4"/>
    </vehicle>
    <vehicle id="moto95" type="moto_motorcycle" depart="316.80" departLane="best">
        <route edges="186254734 133755126#5 133755126#6 133755126#7 133755126#8 133755126#9 133755126#10 133755126#11 133755126#13 706318004#0 -706318004#0"/>
    </vehicle>
    <vehicle id="moto96" type="moto_motorcycle" depart="320.14" departLane="best">
        <route edges="-373896382#13 373896382#13 373896382#14 374529112#0 374529112#1 -133755126#16 -133755126#15 -133755126#14 -133755126#13 -133755126#11 -133755126#10 -133755126#9 706318010"/>
    </vehicle>
    <vehicle id="moto97" type="moto_motorcycle" depart="323.47" departLane="best">
        <route edges="-800610509#0 800610509#0 800610509#1 800610509#2 -306475945 -186258462#1 -186258462#0 133755126#15 133755126#16 374529112#2 374529112#3 374533524#5 374533524#6 374533525#0 374533525#1 374533525#2 374533525#3 374533525#4 374533525#5 374529118#6 374529118#7 374529118#1 374529118#2 374529115 804217356#1 804217356#3 804217356#4 804217356#6 804217356#8 -306475943#2 -306475943#1"/>
    </vehicle>
    <vehicle id="moto98" type="moto_motorcycle" depart="326.81" departLane="best">
        <route edges="-306475946#1 -306475946#0 186258455#1 186258455#2 -186254736#0 133755126#13 133755126#14 133755126#15 133755126#16 374533523#1 -373896382#14 -373896382#13 -373896382#12 -373896382#10 171865792#0 171865792#2 171865792#3 171865791"/>
    </vehicle>
    <vehicle id="moto99" type="moto_motorcycle" depart="330.14" departLane="best">
        <route edges="-122612356#0 122612356#0 122612356#1 -171867136#0 -706734276#3 -706734276#2 706734274#0 186262687#0 186262688#0 186262688#1 186262688#2 186262687#6 186262687#7 186262687#8 186262687#9 290646814 -290646814"/>
    </vehicle>