<routes>
	<vType id="car" type="passenger" length="5" accel="3.5" decel="1.0" sigma="1.0" />
	<flow id="carflow" type="car" beg="0" end="0" number="5" />
</routes>

