<?xml version="1.0" encoding="UTF-8"?>

<!-- generated on Thu Nov  5 09:24:51 2020 by Eclipse SUMO polyconvert Version 1.7.0
<configuration xmlns:xsi="http://www.w3.org/2001/XMLSchema-instance" xsi:noNamespaceSchemaLocation="http://sumo.dlr.de/xsd/polyconvertConfiguration.xsd">

    <input>
        <net-file value="osm.net.xml"/>
        <osm-files value="osm_bbox.osm.xml"/>
        <osm.keep-full-type value="true"/>
        <type-file value="/opt/sumo-1.7.0/data/typemap/osmPolyconvert.typ.xml"/>
    </input>

    <output>
        <output-file value="osm.poly.xml"/>
    </output>

    <processing>
        <poi-layer-offset value="5"/>
    </processing>

    <report>
        <verbose value="true"/>
    </report>

</configuration>
-->

<additional xmlns:xsi="http://www.w3.org/2001/XMLSchema-instance" xsi:noNamespaceSchemaLocation="http://sumo.dlr.de/xsd/additional_file.xsd">
    <location netOffset="-678214.24,-1358783.87" convBoundary="-208.15,-0.00,4436.83,3747.18" origBoundary="76.636848,12.286481,76.679518,12.320351" projParameter="+proj=utm +zone=43 +ellps=WGS84 +datum=WGS84 +units=m +no_defs"/>

    <poly id="121874697" type="building.apartments" color="255,230,230" fill="1" layer="-1.00" shape="3506.903670,2550.745231 3544.929861,2549.521473 3540.236090,2405.233547 3475.759955,2407.299578 3477.878895,2472.395101 3504.328595,2471.552869 3506.903670,2550.745231"/>
    <poly id="143863681" type="amenity.community_centre" color="237,199,199" fill="1" layer="-1.00" shape="3859.729668,1197.472467 3893.248835,1204.064383 3897.338933,1202.352991 3904.573175,1212.830252 3914.537320,1205.933801 3909.054452,1195.467442 3911.975223,1194.611669 3914.683565,1182.448396 3918.463701,1183.345896 3919.955673,1177.845915 3915.928738,1169.413114 3907.474598,1167.911245 3907.780912,1165.888661 3896.710106,1163.573981 3895.510475,1167.549118 3890.851001,1166.358514 3889.040049,1175.916555 3882.039994,1174.999012 3883.268412,1166.399807 3859.960641,1160.369299 3853.942327,1190.477944 3850.715181,1191.619448 3852.725969,1197.141236 3859.729668,1197.472467"/>
    <poly id="143863681#1" type="building.yes" color="255,230,230" fill="1" layer="-1.00" shape="3859.729668,1197.472467 3893.248835,1204.064383 3897.338933,1202.352991 3904.573175,1212.830252 3914.537320,1205.933801 3909.054452,1195.467442 3911.975223,1194.611669 3914.683565,1182.448396 3918.463701,1183.345896 3919.955673,1177.845915 3915.928738,1169.413114 3907.474598,1167.911245 3907.780912,1165.888661 3896.710106,1163.573981 3895.510475,1167.549118 3890.851001,1166.358514 3889.040049,1175.916555 3882.039994,1174.999012 3883.268412,1166.399807 3859.960641,1160.369299 3853.942327,1190.477944 3850.715181,1191.619448 3852.725969,1197.141236 3859.729668,1197.472467"/>
    <poly id="150869510" type="amenity.hospital" color="237,199,199" fill="1" layer="-1.00" shape="1658.700238,1208.567438 1657.101279,1199.696399 1653.301122,1200.281476 1652.673410,1196.217612 1648.000973,1197.129206 1645.155953,1183.913936 1654.298163,1181.436803 1619.746360,992.439776 1728.992778,973.973159 1721.617424,938.560403 1740.866002,936.056951 1828.236036,924.668972 1826.247235,910.208865 1958.215427,897.690804 1969.350065,1080.404445 1970.966381,1091.742600 1770.699967,1108.486468 1771.315154,1112.815763 1738.032465,1117.257305 1743.065223,1151.494083 1719.666956,1154.834875 1725.363177,1194.396880 1658.700238,1208.567438"/>
    <poly id="150949068" type="amenity.bus_station" color="237,199,199" fill="1" layer="-1.00" shape="2160.604065,2772.828199 2084.963511,2782.771265 2086.199250,2818.721647 2076.700053,2845.622848 2100.441319,2959.206462 2110.425646,3007.014780 2185.976512,2997.414247 2160.604065,2772.828199"/>
    <poly id="183313643" type="leisure.sports_centre" color="207,245,201" fill="1" layer="-2.00" shape="3869.401694,1340.585666 4109.570532,1395.625984 4092.470782,1451.275923 4070.070739,1474.180105 4059.754520,1511.386390 4034.821314,1523.588131 4011.633524,1604.832661 3963.488033,1592.263996 3944.585676,1664.917329 3889.256530,1647.757210 3907.192524,1578.283926 3936.853079,1453.315239 3906.933954,1441.645703 3881.809255,1409.484570 3872.005689,1385.361946 3868.188024,1371.277363 3866.832513,1354.862800 3869.401694,1340.585666"/>
    <poly id="183314624" type="building.yes" color="255,230,230" fill="1" layer="-1.00" shape="2949.404511,1282.169106 2842.308084,1250.264713 2848.860758,1228.555932 2776.641409,1207.034410 2753.373877,1284.152579 2828.394493,1306.510052 2834.680531,1285.695701 2938.964428,1316.775081 2945.042439,1315.507327 2952.087413,1309.167763 2955.633116,1300.494409 2955.683416,1292.374665 2949.404511,1282.169106"/>
    <poly id="193437683" type="building.hut" color="255,230,230" fill="1" layer="-1.00" shape="824.981547,2622.401580 818.134854,2562.787274 832.547152,2561.149818 839.393750,2620.775193 824.981547,2622.401580"/>
    <poly id="193437999" type="amenity.college" color="237,199,199" fill="1" layer="-1.00" shape="633.039729,2693.929617 612.949587,2576.454193 804.723827,2560.791262 814.426741,2661.996487 633.039729,2693.929617"/>
    <poly id="193438000" type="building.yes" color="255,230,230" fill="1" layer="-1.00" shape="825.922499,2657.011305 822.532343,2636.878638 833.976566,2634.979620 837.366782,2655.101228 825.922499,2657.011305"/>
    <poly id="193438001" type="building.yes" color="255,230,230" fill="1" layer="-1.00" shape="650.482307,2662.828701 705.200094,2651.769234 701.978958,2635.996307 693.505501,2637.714440 694.762111,2643.895088 655.618831,2651.808574 654.309181,2645.406351 647.208112,2646.834207 650.482307,2662.828701"/>
    <poly id="193438001#1" type="tourism.hostel" color="207,245,201" fill="1" layer="-2.00" shape="650.482307,2662.828701 705.200094,2651.769234 701.978958,2635.996307 693.505501,2637.714440 694.762111,2643.895088 655.618831,2651.808574 654.309181,2645.406351 647.208112,2646.834207 650.482307,2662.828701"/>
    <poly id="193438002" type="building.yes" color="255,230,230" fill="1" layer="-1.00" shape="626.024633,2572.916742 802.325946,2559.791994 800.364727,2547.887635 624.954278,2561.183796 626.024633,2572.916742"/>
    <poly id="193438003" type="building.yes" color="255,230,230" fill="1" layer="-1.00" shape="785.115584,2655.931557 776.355115,2608.618268 751.524388,2613.400094 749.543401,2602.944825 785.115198,2595.629079 795.918435,2653.962221 785.115584,2655.931557"/>
    <poly id="193438004" type="building.yes" color="255,230,230" fill="1" layer="-1.00" shape="742.364084,2645.558398 734.703052,2605.210267 748.043673,2602.714386 753.839360,2633.260656 778.124709,2628.718871 779.979153,2638.520673 742.364084,2645.558398"/>
    <poly id="193439360" type="amenity.cinema" color="237,199,199" fill="1" layer="-1.00" shape="1972.736430,2703.500413 1968.420171,2664.333938 1985.877469,2661.078547 1999.006556,2661.159531 2002.844169,2700.323063 1972.736430,2703.500413"/>
    <poly id="193439360#1" type="building.yes" color="255,230,230" fill="1" layer="-1.00" shape="1972.736430,2703.500413 1968.420171,2664.333938 1985.877469,2661.078547 1999.006556,2661.159531 2002.844169,2700.323063 1972.736430,2703.500413"/>
    <poly id="193439365" type="building.yes" color="255,230,230" fill="1" layer="-1.00" shape="1483.984164,2526.662093 1472.284593,2483.390379 1488.631504,2482.041699 1491.776335,2494.241051 1496.668509,2503.552729 1503.912054,2512.580178 1512.034707,2520.163827 1521.634537,2524.570512 1519.527101,2534.713090 1483.984164,2526.662093"/>
    <poly id="193439366" type="building.yes" color="255,230,230" fill="1" layer="-1.00" shape="2126.983843,2960.841671 2111.827410,2816.954927 2148.918960,2811.962317 2167.543705,2961.379757 2133.496609,2964.853398 2126.983843,2960.841671"/>
    <poly id="193439374" type="building.yes" color="255,230,230" fill="1" layer="-1.00" shape="1524.588899,2518.216581 1514.789336,2512.680273 1510.059146,2508.867740 1506.125393,2504.672913 1502.264524,2499.239515 1498.109979,2490.264253 1495.939217,2480.637433 1514.024890,2481.334995 1518.338852,2490.919687 1520.947117,2494.851921 1524.517840,2497.938249 1528.791186,2499.977944 1524.588899,2518.216581"/>
    <poly id="193439376" type="building.yes" color="255,230,230" fill="1" layer="-1.00" shape="1564.826111,2428.070944 1568.811150,2429.234919 1573.357396,2431.121422 1578.047079,2434.446957 1581.691225,2437.976251 1585.404570,2442.634364 1587.880191,2446.908731 1606.866182,2442.722181 1604.263178,2436.168115 1600.410620,2429.385107 1595.462548,2423.856504 1589.976233,2419.176416 1583.344373,2415.042416 1577.185336,2411.851654 1569.531109,2409.459271 1562.966528,2408.533868 1560.411590,2410.077987 1564.826111,2428.070944"/>
    <poly id="193439977" type="leisure.park" color="207,245,201" fill="1" layer="-2.00" shape="2465.939375,2501.122688 2398.158041,2355.184528 2420.909891,2299.668582 2668.170136,2260.586682 2712.945616,2427.269616 2690.119670,2457.772085 2476.422038,2505.236471 2465.939375,2501.122688"/>
    <poly id="193439978" type="building.yes" color="255,230,230" fill="1" layer="-1.00" shape="2548.129238,2558.028863 2537.718383,2512.419178 2555.467798,2507.694570 2561.962367,2533.997685 2584.273979,2528.571182 2589.081090,2548.060282 2548.129238,2558.028863"/>
    <poly id="193439985" type="tourism.hotel" color="207,245,201" fill="1" layer="-2.00" shape="2557.422232,2569.812858 2520.921735,2528.422615 2505.242712,2514.983978 2609.846811,2491.857330 2625.937211,2551.308504 2557.422232,2569.812858"/>
    <poly id="193439987" type="building.hotel" color="255,230,230" fill="1" layer="-1.00" shape="2344.759240,2451.797178 2379.770458,2436.758047 2383.095461,2444.389752 2396.772769,2438.511480 2386.465480,2414.817790 2337.766055,2435.735143 2344.759240,2451.797178"/>
    <poly id="193440254" type="amenity.bus_station" color="237,199,199" fill="1" layer="-1.00" shape="1611.140585,2441.055896 1668.088915,2431.837196 1659.401270,2374.667058 1630.723790,2350.440268 1616.255970,2341.622772 1601.276938,2336.331134 1577.171754,2332.731260 1551.521415,2233.717336 1514.415132,2241.022797 1560.718374,2404.415781 1584.589869,2412.395035 1599.869782,2423.584932 1607.388922,2433.786748 1611.140585,2441.055896"/>
    <poly id="193440388" type="shop.mall" color="237,199,255" fill="1" layer="-1.00" shape="1596.367661,2518.945852 1614.300625,2496.731717 1625.550723,2469.841190 1665.566631,2463.416707 1672.238452,2535.265696 1652.854347,2536.982766 1651.172669,2525.666346 1596.367661,2518.945852"/>
    <poly id="193442331" type="building.yes" color="255,230,230" fill="1" layer="-1.00" shape="413.165151,2866.820766 398.800823,2782.369341 423.919656,2778.462951 438.285743,2862.615718 413.165151,2866.820766"/>
    <poly id="235210802" type="landuse.recreation_ground" color="194,194,130" fill="1" layer="-3.00" shape="3202.592622,3013.092246 3565.691901,2990.701924 3577.266381,2733.685769 3350.180621,2691.407640 3153.829907,2695.586643 3202.592622,3013.092246"/>
    <poly id="235210804" type="leisure.park" color="207,245,201" fill="1" layer="-2.00" shape="1657.415637,1670.304755 1721.439072,1680.079865 1726.616994,1662.422498 1724.843367,1646.591942 1716.794954,1644.584315 1703.828960,1649.748237 1657.415637,1670.304755"/>
    <poly id="248974352" type="building.yes" color="255,230,230" fill="1" layer="-1.00" shape="448.468966,2234.387177 488.854143,2228.029709 504.202798,2324.102924 474.335898,2328.809961 472.544298,2317.603628 490.836846,2314.717514 485.745128,2282.837075 463.685220,2286.308604 462.317484,2276.941260 480.969622,2273.957772 479.167683,2262.662875 455.975348,2266.315552 454.351215,2256.183321 479.253020,2252.264529 477.901428,2243.815481 450.669456,2248.107221 448.468966,2234.387177"/>
    <poly id="249514079" type="amenity.college" color="237,199,199" fill="1" layer="-1.00" shape="134.778709,2801.609251 609.255347,2700.167162 587.666848,2552.005912 311.474431,2566.966251 305.273522,2583.079787 287.897001,2601.647319 267.039018,2606.066627 247.762461,2600.904320 154.279274,2604.371302 114.819156,2660.660359 134.778709,2801.609251"/>
    <poly id="249514339" type="building.yes" color="255,230,230" fill="1" layer="-1.00" shape="333.891660,2798.666037 392.397095,2785.394535 410.687007,2868.276941 354.476771,2879.792398 333.891660,2798.666037"/>
    <poly id="249515059" type="building.yes" color="255,230,230" fill="1" layer="-1.00" shape="333.891660,2798.666037 392.397095,2785.394535 410.687007,2868.276941 354.476771,2879.792398 333.891660,2798.666037"/>
    <poly id="255553854" type="building.yes" color="255,230,230" fill="1" layer="-1.00" shape="3202.449251,2738.424870 3208.052025,2731.313114 3214.865203,2727.229012 3222.756719,2724.667209 3256.530800,2726.713407 3264.524882,2728.654800 3269.925330,2733.102395 3272.712655,2739.690999 3271.735786,2800.629752 3269.872260,2809.933031 3265.745841,2815.781728 3257.328259,2820.729809 3218.843822,2820.490758 3212.145418,2818.358292 3206.702570,2813.733438 3202.395556,2806.626517 3201.143640,2798.022969 3202.449251,2738.424870"/>
    <poly id="255553857" type="building.roof" color="255,230,230" fill="1" layer="-1.00" shape="3207.528922,2740.226458 3211.498104,2735.173296 3217.011914,2731.877645 3223.421068,2729.793398 3255.759795,2731.753242 3262.168099,2733.308650 3265.696225,2736.217951 3267.593914,2740.676975 3266.637417,2800.089191 3265.076930,2807.889815 3262.201607,2811.965178 3255.945733,2815.643407 3219.658535,2815.418006 3214.686279,2813.838336 3210.650149,2810.405935 3207.301473,2804.875878 3206.258177,2797.711786 3207.528922,2740.226458"/>
    <poly id="28275781" type="waterway.drain" color="181,209,209" fill="0" layer="-4.00" shape="986.676515,1764.389077 1096.865514,1747.740592 1163.257026,1731.443258 1264.242460,1706.087904 1313.402558,1686.344185"/>
    <poly id="28413680" type="leisure.park" color="207,245,201" fill="1" layer="-2.00" shape="807.433514,1949.751721 799.984318,1897.866569 891.243677,1884.940212 870.576546,1740.899672 751.517903,1756.454810 757.744152,1803.785697 717.292848,1808.394578 738.798709,1959.464829 807.433514,1949.751721"/>
    <poly id="28413759" type="leisure.park" color="207,245,201" fill="1" layer="-2.00" shape="1672.176079,2425.246869 1789.001093,2406.484895 1803.109048,2388.948931 1789.412060,2306.215166 1653.717980,2322.460442 1672.176079,2425.246869"/>
    <poly id="28413762" type="leisure.common" color="207,245,201" fill="1" layer="-2.00" shape="2275.465944,2321.581250 2272.476750,2315.931864 1931.424881,2404.928792 1901.562699,2429.989791 1890.448397,2443.627969 1882.921265,2455.916485 1880.317847,2475.912862 2182.167012,2423.501203 2246.515233,2412.116741 2275.266052,2357.467476 2287.684787,2333.449579 2280.693120,2327.698031 2275.465944,2321.581250"/>
    <poly id="28420932" type="leisure.common" color="207,245,201" fill="1" layer="-2.00" shape="1904.263652,1695.133546 1899.745637,1670.989038 1907.464449,1631.144512 1890.629645,1635.676074 1843.764871,1664.150424 1815.657424,1679.741671 1820.266853,1689.051652 1904.263652,1695.133546"/>
    <poly id="28420998" type="waterway.drain" color="181,209,209" fill="0" layer="-4.00" shape="2978.503114,1440.380729 2907.474238,1418.191346 2840.357553,1400.152774 2741.081649,1377.269004 2627.638599,1332.061895 2633.891270,1267.361466 2611.187360,1221.720080 2573.091141,1191.792212 2522.802739,1171.999956 2476.079846,1177.275822 2435.404017,1193.342071"/>
    <poly id="28425062" type="natural.water" color="181,209,209" fill="1" layer="-4.00" shape="3827.175053,2016.159973 3903.136435,2053.007648 3953.172194,2114.729078 3984.184301,2130.686884 4023.926349,2126.542723 4078.025701,2110.496071 4102.248583,2074.327947 4107.922062,2038.497699 4112.225348,2013.057948 4110.738767,1961.883171 4102.448921,1909.659248 4045.637976,1854.577271 3996.245462,1806.533364 3946.128178,1766.538768 3880.746550,1707.642445 3800.342376,1657.370263 3743.803851,1610.786946 3688.128164,1490.176966 3623.305463,1342.959612 3573.605462,1356.379537 3587.649724,1555.818147 3591.911970,1683.863161 3568.483331,1818.052841 3528.858376,1913.554838 3478.207759,1978.565680 3569.208910,1970.768008 3617.376247,1972.738078 3732.104511,1990.898004 3827.175053,2016.159973"/>
    <poly id="285340195" type="building.industrial" color="255,230,230" fill="1" layer="-1.00" shape="1731.262581,1215.076141 1770.778529,1208.858685 1786.111651,1241.554781 1779.914513,1244.514628 1782.428723,1247.837845 1750.070142,1250.625637 1735.028580,1248.331611 1731.262581,1215.076141"/>
    <poly id="28918825" type="landuse.grass" color="194,194,130" fill="1" layer="-3.00" shape="2511.793571,1068.152532 2511.134573,1076.213184 2518.382650,1088.050830 2527.526670,1090.585381 2547.006719,1098.162034 2561.004963,1103.824159 2571.359592,1107.616294 2586.572272,1113.916514 2601.811143,1117.738853 2618.279912,1119.699204 2628.623652,1123.491294 2643.257244,1126.679339 2661.530468,1132.379012 2673.704929,1137.421467 2686.500120,1140.598166 2695.023997,1143.140001 2706.581615,1149.417682 2717.545454,1153.202580 2726.681711,1156.987239 2739.507551,1155.208047 2744.414861,1151.510266 2747.522177,1141.595156 2750.636471,1132.310664 2748.238802,1124.231096 2742.178504,1117.356833 2721.460859,1112.892076 2707.424940,1111.566228 2683.662115,1105.213062 2656.853423,1098.841082 2638.568686,1094.999882 2628.198669,1093.696740 2611.151420,1086.765645 2598.348610,1084.816900 2575.826460,1076.612959 2564.241921,1074.682822 2553.270450,1072.125904 2538.632999,1069.557398 2527.052353,1066.996726 2519.137549,1064.469771 2511.793571,1068.152532"/>
    <poly id="28918827" type="landuse.grass" color="194,194,130" fill="1" layer="-3.00" shape="2520.583229,1004.795319 2515.463610,1004.122050 2510.466509,1001.225931 2507.770632,997.381574 2505.504946,992.577419 2503.960779,988.961432 2499.187511,983.289956 2494.499571,979.654549 2487.915721,980.034261 2482.166821,980.850578 2472.847662,983.768885 2463.867255,981.157928 2456.193996,978.267417 2447.624222,976.101510 2441.895781,977.128153 2431.406482,991.610848 2428.499841,998.993856 2427.393446,1009.043033 2428.914189,1016.453382 2431.484607,1021.237287 2438.216481,1026.832345 2444.697648,1028.985352 2453.012823,1030.098729 2459.260122,1029.606305 2466.817712,1028.325460 2470.976421,1027.820137 2477.745802,1027.342004 2485.529057,1030.034074 2498.004046,1032.224120 2510.714535,1036.794112 2518.491224,1040.548172 2530.964567,1043.003729 2544.722556,1047.060262 2557.189333,1050.577811 2569.898167,1055.413326 2581.039405,1063.945171 2587.517275,1066.629202 2595.553381,1070.650395 2602.043768,1073.069001 2612.681371,1076.840775 2623.604056,1078.490271 2627.527815,1073.757557 2628.351936,1067.147141 2628.911700,1061.066102 2627.898454,1056.037359 2620.913140,1050.971695 2612.359807,1046.150783 2600.160602,1041.583904 2589.526266,1037.281147 2577.844280,1033.513992 2561.751318,1027.064528 2550.330468,1023.287936 2541.790105,1016.365210 2534.547043,1010.755904 2527.036275,1006.218030 2520.583229,1004.795319"/>
    <poly id="28919228" type="landuse.grass" color="194,194,130" fill="1" layer="-3.00" shape="2577.563004,814.990266 2575.552938,828.673496 2569.708069,839.733289 2564.536127,847.522674 2555.494309,856.604612 2550.941207,866.355925 2549.593060,876.790804 2548.243762,889.172716 2551.337147,906.150984 2553.189982,917.911044 2558.239830,931.637900 2562.680063,940.150447 2570.948237,950.633692 2584.934985,972.248196 2595.108395,986.006730 2607.861062,997.834172 2626.369884,1012.949648 2645.543478,1026.111146 2654.453336,1036.609453 2660.185208,1043.824606 2669.107231,1052.353828 2675.480904,1059.572954 2694.025982,1068.814398 2703.592531,1078.664084 2715.061571,1090.472583 2723.991570,1097.707536 2735.507744,1103.653088 2748.312867,1106.984752 2757.298152,1107.040343 2766.300760,1102.538198 2770.183905,1097.340614 2768.335216,1084.927849 2763.882884,1078.384350 2749.834582,1068.506914 2740.916622,1059.324988 2730.655784,1057.956110 2722.343356,1054.641185 2706.370772,1042.804829 2694.873520,1035.554008 2676.332524,1025.648828 2666.769915,1015.157541 2655.918487,1007.258030 2648.265148,999.389360 2638.745680,983.676744 2631.734207,975.800985 2621.552739,963.347789 2611.986123,953.498139 2607.561975,942.385941 2603.144736,931.915424 2599.992098,922.769190 2599.410800,912.975085 2596.883900,906.432459 2593.727222,897.938902 2590.578678,888.128931 2590.651218,876.391829 2595.196333,867.934810 2599.761552,856.225475 2601.731358,849.057941 2605.642668,839.302667 2606.986801,829.520463 2606.393329,821.695448 2605.787822,815.817399 2594.271508,809.871917 2583.367546,810.457232 2577.563004,814.990266"/>
    <poly id="28925427" type="landuse.grass" color="194,194,130" fill="1" layer="-3.00" shape="3353.309620,1003.624322 3343.292144,1022.634351 3346.827761,1040.146527 3353.479859,1060.322050 3361.235439,1070.968322 3373.166160,1078.465501 3384.608681,1082.242566 3394.491277,1084.958988 3403.386608,1080.235103 3406.548053,1073.904703 3406.114785,1059.586791 3402.552831,1046.322542 3393.248279,1034.604616 3382.373971,1023.407961 3366.821067,1010.589231 3353.309620,1003.624322"/>
    <poly id="28925429" type="landuse.grass" color="194,194,130" fill="1" layer="-3.00" shape="3001.265381,1053.369834 3001.669377,1072.444513 3017.770777,1081.029398 3044.293447,1089.667808 3080.189657,1098.906416 3116.594968,1110.250151 3163.404929,1124.324576 3196.205415,1129.296042 3218.597798,1132.089995 3236.284328,1135.905735 3252.944025,1138.653090 3264.921788,1140.320442 3274.282221,1143.033585 3294.665018,1133.081889 3305.171697,1119.373951 3302.148335,1103.457998 3294.885308,1097.582851 3283.951825,1095.921968 3268.855255,1093.715309 3246.420086,1097.813155 3224.018791,1098.205203 3208.918997,1096.518505 3194.869019,1092.194328 3172.004711,1083.047448 3156.412324,1076.589677 3137.700207,1067.988524 3125.200196,1066.329053 3108.564499,1061.457879 3097.115434,1058.731849 3078.899114,1054.381907 3062.738547,1055.343774 3052.356742,1048.918356 3039.884052,1044.604033 3028.415238,1045.063981 3012.258030,1045.483823 3001.265381,1053.369834"/>
    <poly id="28925432" type="landuse.grass" color="194,194,130" fill="1" layer="-3.00" shape="3313.383649,1140.621170 3320.093930,1149.667907 3339.354401,1154.035557 3359.677953,1153.630704 3370.644379,1149.981695 3377.972118,1143.677160 3380.638834,1134.677561 3378.619333,1123.535880 3372.955667,1112.371574 3356.316723,1108.031242 3340.179158,1105.287070 3329.232495,1105.750139 3321.361846,1113.644354 3318.144469,1128.990565 3313.383649,1140.621170"/>
    <poly id="28931133" type="leisure.track" color="207,245,201" fill="1" layer="-2.00" shape="2738.805134,1045.428195 3128.475112,1178.547808 3260.925122,1223.410171 3291.651224,1224.308856 3332.185156,1222.436384 3365.786322,1210.564435 3391.742842,1192.969852 3422.006577,1156.219193 3441.834487,1113.009461 3444.868422,1074.662616 3439.532907,1033.431726 3417.570902,970.071628 3394.022372,937.954028 3065.275934,781.047569 2873.727301,691.071804 2833.282762,680.157037 2787.180818,679.871808 2743.802203,689.548889 2699.698761,705.615805 2654.752137,743.703458 2629.355853,783.328032 2620.129807,808.128949 2608.543092,873.415912 2617.988851,927.460400 2638.705075,967.370032 2662.258700,998.778932 2694.905471,1026.869962 2738.805134,1045.428195"/>
    <poly id="28950421" type="tourism.zoo" color="207,245,201" fill="1" layer="-2.00" shape="3001.606136,1847.998215 2703.152230,1847.864361 2707.130203,1804.478798 2717.924387,1779.388935 2724.623059,1767.460511 3037.767888,1322.885455 3205.745453,1320.519686 3531.132450,1309.696136 3557.849014,1474.354632 3567.217979,1683.897682 3545.719020,1771.934380 3219.785700,1734.885096 3214.827601,1876.479828 3000.870706,1870.119162 3001.606136,1847.998215"/>
    <poly id="28950423" type="landuse.grass" color="194,194,130" fill="1" layer="-3.00" shape="3330.560744,1135.373403 3338.771206,1142.836418 3348.945568,1145.864395 3360.135766,1142.969039 3368.889274,1140.058560 3371.853637,1132.178148 3365.113067,1122.755076 3355.440504,1117.749974 3344.253319,1120.158590 3336.458827,1124.546377 3330.560744,1135.373403"/>
    <poly id="28950429" type="landuse.grass" color="194,194,130" fill="1" layer="-3.00" shape="3366.034810,1053.131748 3368.910316,1059.566002 3373.252622,1064.538015 3374.171740,1072.442536 3379.973125,1075.443374 3389.696482,1074.021330 3398.476209,1068.644022 3398.546748,1057.282997 3393.733267,1049.354296 3383.564985,1045.341759 3374.803660,1047.754365 3366.034810,1053.131748"/>
    <poly id="28951529" type="landuse.grass" color="194,194,130" fill="1" layer="-3.00" shape="3398.074166,1117.627462 3402.678634,1108.407577 3394.643993,1104.164901 3388.601944,1111.893450 3398.074166,1117.627462"/>
    <poly id="28951530" type="landuse.grass" color="194,194,130" fill="1" layer="-3.00" shape="3360.003734,1092.389253 3363.345907,1086.734801 3372.825971,1091.207697 3370.102544,1097.076181 3360.003734,1092.389253"/>
    <poly id="28951593" type="landuse.grass" color="194,194,130" fill="1" layer="-3.00" shape="2711.923652,1128.199216 2719.059195,1117.766947 2733.614794,1119.494275 2741.251454,1126.533167 2743.228988,1133.946370 2742.177907,1140.312002 2736.458290,1148.706420 2727.559423,1150.509907 2717.460627,1147.571124 2711.631708,1141.981575 2710.256975,1135.600938 2711.923652,1128.199216"/>
    <poly id="28951595" type="landuse.grass" color="194,194,130" fill="1" layer="-3.00" shape="2724.959469,1080.168029 2728.325704,1091.705157 2730.916799,1096.655165 2738.596167,1098.550148 2746.485853,1096.342161 2750.385010,1088.555994 2749.819092,1081.560845 2746.610480,1076.197693 2739.151268,1073.883687 2732.275021,1074.051341 2724.959469,1080.168029"/>
    <poly id="28951596" type="landuse.grass" color="194,194,130" fill="1" layer="-3.00" shape="2741.518504,1115.018513 2743.381608,1109.277417 2758.710914,1114.306238 2755.847026,1120.041141 2741.518504,1115.018513"/>
    <poly id="309508129" type="building.commercial" color="255,230,230" fill="1" layer="-1.00" shape="470.273547,2398.988548 462.211962,2354.688748 471.271372,2353.217501 476.411842,2378.903166 496.602516,2375.132595 493.810162,2360.369035 487.657140,2361.515108 485.802773,2351.680155 510.774238,2347.031692 519.614587,2393.825370 500.643687,2397.360005 499.906078,2393.461449 470.273547,2398.988548"/>
    <poly id="309508130" type="building.school" color="255,230,230" fill="1" layer="-1.00" shape="955.815941,2202.612687 947.077026,2153.562638 1001.694117,2144.914626 1008.672770,2195.403115 955.815941,2202.612687"/>
    <poly id="311248802" type="amenity.college" color="237,199,199" fill="1" layer="-1.00" shape="1407.214883,1964.504916 1458.712349,1980.342344 1450.151684,2047.528658 1424.680496,2053.755264 1421.813422,2029.975022 1380.301825,2031.888213 1382.909510,2009.369576 1391.727667,1983.459670 1407.214883,1964.504916"/>
    <poly id="311248803" type="leisure.park" color="207,245,201" fill="1" layer="-2.00" shape="1524.113305,2406.314634 1542.563596,2400.797223 1490.946022,2211.805756 1460.436728,2218.311089 1524.113305,2406.314634"/>
    <poly id="311248804" type="building.commercial" color="255,230,230" fill="1" layer="-1.00" shape="1510.738132,2412.626595 1521.548232,2409.507034 1455.325687,2218.047351 1447.149474,2219.158667 1510.738132,2412.626595"/>
    <poly id="311412064" type="amenity.place_of_worship" color="237,199,199" fill="1" layer="-1.00" shape="1417.214332,2579.960814 1411.125651,2561.791653 1411.178698,2553.163092 1423.413608,2551.833353 1426.079464,2578.245291 1417.214332,2579.960814"/>
    <poly id="311412064#1" type="building.yes" color="255,230,230" fill="1" layer="-1.00" shape="1417.214332,2579.960814 1411.125651,2561.791653 1411.178698,2553.163092 1423.413608,2551.833353 1426.079464,2578.245291 1417.214332,2579.960814"/>
    <poly id="311412065" type="amenity.marketplace" color="237,199,199" fill="1" layer="-1.00" shape="1389.558412,2612.525249 1407.658355,2607.348563 1395.584761,2554.129244 1385.473202,2556.877006 1392.216980,2583.502069 1382.638426,2586.253108 1389.558412,2612.525249"/>
    <poly id="311412065#1" type="building.yes" color="255,230,230" fill="1" layer="-1.00" shape="1389.558412,2612.525249 1407.658355,2607.348563 1395.584761,2554.129244 1385.473202,2556.877006 1392.216980,2583.502069 1382.638426,2586.253108 1389.558412,2612.525249"/>
    <poly id="311412066" type="amenity.marketplace" color="237,199,199" fill="1" layer="-1.00" shape="1331.498774,2606.183486 1354.023650,2601.387966 1345.727293,2567.197567 1323.738651,2571.465384 1331.498774,2606.183486"/>
    <poly id="311412066#1" type="building.yes" color="255,230,230" fill="1" layer="-1.00" shape="1331.498774,2606.183486 1354.023650,2601.387966 1345.727293,2567.197567 1323.738651,2571.465384 1331.498774,2606.183486"/>
    <poly id="311852706" type="amenity.townhall" color="237,199,199" fill="1" layer="-1.00" shape="1736.062486,2568.271530 1774.567120,2568.774212 1775.730942,2568.792444 1775.847386,2560.485078 1775.849635,2560.120023 1777.981553,2560.144219 1779.536965,2560.164864 1780.450673,2560.170492 1781.299049,2560.186782 1781.495736,2545.917116 1780.636483,2545.900760 1779.722774,2545.895131 1778.091219,2545.874018 1776.155163,2545.839966 1776.157889,2545.397475 1776.275150,2536.957361 1769.541643,2536.971195 1742.535222,2536.417652 1736.486998,2536.435715 1736.379809,2545.008641 1736.169677,2559.698603 1736.062486,2568.271530"/>
    <poly id="311852706#1" type="building.yes" color="255,230,230" fill="1" layer="-1.00" shape="1736.062486,2568.271530 1774.567120,2568.774212 1775.730942,2568.792444 1775.847386,2560.485078 1775.849635,2560.120023 1777.981553,2560.144219 1779.536965,2560.164864 1780.450673,2560.170492 1781.299049,2560.186782 1781.495736,2545.917116 1780.636483,2545.900760 1779.722774,2545.895131 1778.091219,2545.874018 1776.155163,2545.839966 1776.157889,2545.397475 1776.275150,2536.957361 1769.541643,2536.971195 1742.535222,2536.417652 1736.486998,2536.435715 1736.379809,2545.008641 1736.169677,2559.698603 1736.062486,2568.271530"/>