<?xml version="1.0" encoding="UTF-8"?>

<!-- generated on Thu Nov  5 09:25:21 2020 by Eclipse SUMO duarouter Version 1.7.0
<configuration xmlns:xsi="http://www.w3.org/2001/XMLSchema-instance" xsi:noNamespaceSchemaLocation="http://sumo.dlr.de/xsd/duarouterConfiguration.xsd">

    <input>
        <net-file value="/home/shashwath/Sumo/2020-11-05-09-24-44/osm.net.xml"/>
        <route-files value="/home/shashwath/Sumo/2020-11-05-09-24-44/osm.motorcycle.trips.xml"/>
    </input>

    <output>
        <output-file value="/home/shashwath/Sumo/2020-11-05-09-24-44/osm.motorcycle.trips.xml.tmp"/>
        <write-trips value="true"/>
    </output>

    <time>
        <begin value="0"/>
        <end value="3600"/>
    </time>

    <report>
        <no-warnings value="true"/>
        <ignore-errors value="true"/>
        <no-step-log value="true"/>
    </report>

</configuration>
-->

<routes xmlns:xsi="http://www.w3.org/2001/XMLSchema-instance" xsi:noNamespaceSchemaLocation="http://sumo.dlr.de/xsd/routes_file.xsd">
    <vType id="moto_motorcycle" vClass="motorcycle"/>
    <trip id="moto0" type="moto_motorcycle" depart="0.00" departLane="best" from="28419825#7" to="-230594213#0"/>
    <trip id="moto1" type="moto_motorcycle" depart="2.30" departLane="best" from="-824731622" to="-230599255#1"/>
    <trip id="moto2" type="moto_motorcycle" depart="4.60" departLane="best" from="-28420945#4" to="230599331#2"/>
    <trip id="moto3" type="moto_motorcycle" depart="6.90" departLane="best" from="-230594214#1" to="-28419989#5"/>
    <trip id="moto4" type="moto_motorcycle" depart="9.20" departLane="best" from="316353905#2" to="-193440381#1"/>
    <trip id="moto5" type="moto_motorcycle" depart="11.50" departLane="best" from="316325905" to="28424753#7"/>
    <trip id="moto6" type="moto_motorcycle" depart="13.80" departLane="best" from="-319060588" to="-28413692#2"/>
    <trip id="moto7" type="moto_motorcycle" depart="16.10" departLane="best" from="319060206#2" to="28413665#3"/>
    <trip id="moto8" type="moto_motorcycle" depart="18.40" departLane="best" from="316333787#4" to="28439243#1"/>
    <trip id="moto10" type="moto_motorcycle" depart="23.00" departLane="best" from="320642823" to="28275807#3"/>
    <trip id="moto11" type="moto_motorcycle" depart="25.30" departLane="best" from="-28186550#3" to="-28485643#1"/>
    <trip id="moto12" type="moto_motorcycle" depart="27.60" departLane="best" from="28413739#9" to="-360279145#1"/>
    <trip id="moto13" type="moto_motorcycle" depart="29.90" departLane="best" from="-360301041" to="-28420842#4"/>
    <trip id="moto14" type="moto_motorcycle" depart="32.20" departLane="best" from="-28451181#1" to="727779330#6"/>
    <trip id="moto15" type="moto_motorcycle" depart="34.50" departLane="best" from="28419868#1" to="28413666#6"/>
    <trip id="moto16" type="moto_motorcycle" depart="36.81" departLane="best" from="-28419852#11" to="28439243#0"/>
    <trip id="moto17" type="moto_motorcycle" depart="39.11" departLane="best" from="85568167#3" to="28419852#1"/>
    <trip id="moto18" type="moto_motorcycle" depart="41.41" departLane="best" from="28119664#7" to="28420852#6"/>
    <trip id="moto19" type="moto_motorcycle" depart="43.71" departLane="best" from="319060202#1" to="314269352#12"/>
    <trip id="moto20" type="moto_motorcycle" depart="46.01" departLane="best" from="-316324346" to="-28451253#0"/>
    <trip id="moto21" type="moto_motorcycle" depart="48.31" departLane="best" from="-28119664#30" to="-230599308"/>
    <trip id="moto22" type="moto_motorcycle" depart="50.61" departLane="best" from="-28275806#5" to="28413715#5"/>
    <trip id="moto23" type="moto_motorcycle" depart="52.91" departLane="best" from="-227504216#7" to="28439197#12"/>
    <trip id="moto24" type="moto_motorcycle" depart="55.21" departLane="best" from="28420848#10" to="242786618#3"/>
    <trip id="moto25" type="moto_motorcycle" depart="57.51" departLane="best" from="230599319#2" to="-28419881#0"/>
    <trip id="moto26" type="moto_motorcycle" depart="59.81" departLane="best" from="-315477292#1" to="28419831"/>
    <trip id="moto27" type="moto_motorcycle" depart="62.11" departLane="best" from="28413666#13" to="-28413686#4"/>
    <trip id="moto28" type="moto_motorcycle" depart="64.41" departLane="best" from="305502408#6" to="26610044#4"/>
    <trip id="moto29" type="moto_motorcycle" depart="66.71" departLane="best" from="314269352#14" to="234376524#3"/>
    <trip id="moto30" type="moto_motorcycle" depart="69.01" departLane="best" from="-230594200#5" to="447792981#1"/>
    <trip id="moto31" type="moto_motorcycle" depart="71.31" departLane="best" from="-28119664#11" to="230599263#5"/>
    <trip id="moto32" type="moto_motorcycle" depart="73.61" departLane="best" from="-230599364" to="305502408#4"/>
    <trip id="moto33" type="moto_motorcycle" depart="75.91" departLane="best" from="311851897#1" to="-28413646#5"/>
    <trip id="moto34" type="moto_motorcycle" depart="78.21" departLane="best" from="230594210" to="28119664#14"/>
    <trip id="moto35" type="moto_motorcycle" depart="80.51" departLane="best" from="-28451061#1" to="321934113#5"/>
    <trip id="moto36" type="moto_motorcycle" depart="82.81" departLane="best" from="-824755237#1" to="-28420848#5"/>
    <trip id="moto37" type="moto_motorcycle" depart="85.11" departLane="best" from="-85568167#0" to="230599358#1"/>
    <trip id="moto38" type="moto_motorcycle" depart="87.41" departLane="best" from="-230599367#1" to="28413725#6"/>
    <trip id="moto39" type="moto_motorcycle" depart="89.71" departLane="best" from="320524129#1" to="-230599367#0"/>
    <trip id="moto40" type="moto_motorcycle" depart="92.01" departLane="best" from="-28420852#3" to="-28413659#7"/>
    <trip id="moto41" type="moto_motorcycle" depart="94.31" departLane="best" from="316353905#0" to="-28419925#2"/>
    <trip id="moto42" type="moto_motorcycle" depart="96.61" departLane="best" from="-28186529#1" to="-826429741"/>
    <trip id="moto43" type="moto_motorcycle" depart="98.91" departLane="best" from="28439232#6" to="28420021#2"/>
    <trip id="moto44" type="moto_motorcycle" depart="101.21" departLane="best" from="85564965#0" to="-28186538#0"/>
    <trip id="moto45" type="moto_motorcycle" depart="103.51" departLane="best" from="320642823" to="-28439150#0"/>
    <trip id="moto46" type="moto_motorcycle" depart="105.81" departLane="best" from="-28419925#2" to="168752556#2"/>
    <trip id="moto47" type="moto_motorcycle" depart="108.12" departLane="best" from="132901844#1" to="320642824#0"/>
    <trip id="moto48" type="moto_motorcycle" depart="110.42" departLane="best" from="28119664#13" to="-230599326#0"/>
    <trip id="moto49" type="moto_motorcycle" depart="112.72" departLane="best" from="99770070#0" to="316747955#2"/>
    <trip id="moto50" type="moto_motorcycle" depart="115.02" departLane="best" from="826118154#1" to="439625373#1"/>
    <trip id="moto51" type="moto_motorcycle" depart="117.32" departLane="best" from="319060207#3" to="-28419825#12"/>
    <trip id="moto52" type="moto_motorcycle" depart="119.62" departLane="best" from="230599263#3" to="-28420852#1"/>
    <trip id="moto53" type="moto_motorcycle" depart="121.92" departLane="best" from="-469323992" to="-230599347"/>
    <trip id="moto54" type="moto_motorcycle" depart="124.22" departLane="best" from="-360316366#1" to="85564965#2"/>
    <trip id="moto55" type="moto_motorcycle" depart="126.52" departLane="best" from="193440380#3" to="-824755237#0"/>
    <trip id="moto56" type="moto_motorcycle" depart="128.82" departLane="best" from="28119664#32" to="28439146#0"/>
    <trip id="moto57" type="moto_motorcycle" depart="131.12" departLane="best" from="-28413692#0" to="-314269350#1"/>
    <trip id="moto58" type="moto_motorcycle" depart="133.42" departLane="best" from="26610092#2" to="28485621"/>
    <trip id="moto59" type="moto_motorcycle" depart="135.72" departLane="best" from="-230599345#0" to="28275818"/>
    <trip id="moto60" type="moto_motorcycle" depart="138.02" departLane="best" from="230599327#0" to="319511469#0"/>
    <trip id="moto61" type="moto_motorcycle" depart="140.32" departLane="best" from="-28413715#4" to="822247610#1"/>
    <trip id="moto62" type="moto_motorcycle" depart="142.62" departLane="best" from="360301037" to="-28424942#1"/>
    <trip id="moto63" type="moto_motorcycle" depart="144.92" departLane="best" from="28413644#1" to="28413684#4"/>
    <trip id="moto64" type="moto_motorcycle" depart="147.22" departLane="best" from="-824731615" to="28275817#9"/>
    <trip id="moto65" type="moto_motorcycle" depart="149.52" departLane="best" from="230599367#0" to="727779328#0"/>
    <trip id="moto66" type="moto_motorcycle" depart="151.82" departLane="best" from="-28424843#1" to="-439625377#1"/>
    <trip id="moto67" type="moto_motorcycle" depart="154.12" departLane="best" from="-230599371" to="227504216#1"/>
    <trip id="moto68" type="moto_motorcycle" depart="156.42" departLane="best" from="85572504#0" to="85572502#12"/>
    <trip id="moto69" type="moto_motorcycle" depart="158.72" departLane="best" from="-230599372#1" to="-28420848#9"/>
    <trip id="moto70" type="moto_motorcycle" depart="161.02" departLane="best" from="-360301039" to="-28413715#5"/>
    <trip id="moto71" type="moto_motorcycle" depart="163.32" departLane="best" from="316747951#6" to="28424794#6"/>
    <trip id="moto72" type="moto_motorcycle" depart="165.62" departLane="best" from="28413666#9" to="85564975#1"/>
    <trip id="moto73" type="moto_motorcycle" depart="167.92" departLane="best" from="28419907#2" to="-193614220#2"/>
    <trip id="moto74" type="moto_motorcycle" depart="170.22" departLane="best" from="-28275779#7" to="28119664#27"/>
    <trip id="moto75" type="moto_motorcycle" depart="172.52" departLane="best" from="28413739#4" to="-28451050#4"/>
    <trip id="moto76" type="moto_motorcycle" depart="174.82" departLane="best" from="319060205#5" to="-28119664#6"/>
    <trip id="moto77" type="moto_motorcycle" depart="177.12" departLane="best" from="-230599375#0" to="358989529#9"/>
    <trip id="moto78" type="moto_motorcycle" depart="179.43" departLane="best" from="360318388#0" to="26652692#2"/>
    <trip id="moto79" type="moto_motorcycle" depart="181.73" departLane="best" from="-28413676" to="-28413646#21"/>
    <trip id="moto80" type="moto_motorcycle" depart="184.03" departLane="best" from="-316170712#1" to="360316365#2"/>
    <trip id="moto81" type="moto_motorcycle" depart="186.33" departLane="best" from="316170714#0" to="320642822#1"/>
    <trip id="moto82" type="moto_motorcycle" depart="188.63" departLane="best" from="-28439197#1" to="-28275778#2"/>
    <trip id="moto83" type="moto_motorcycle" depart="190.93" departLane="best" from="314269352#19" to="360277424"/>
    <trip id="moto84" type="moto_motorcycle" depart="193.23" departLane="best" from="-728422514" to="28413684#9"/>
    <trip id="moto85" type="moto_motorcycle" depart="195.53" departLane="best" from="-28413689#5" to="447792981#3"/>
    <trip id="moto86" type="moto_motorcycle" depart="197.83" departLane="best" from="316353905#6" to="358989529#10"/>
    <trip id="moto87" type="moto_motorcycle" depart="200.13" departLane="best" from="-230594213#0" to="28451061#5"/>
    <trip id="moto88" type="moto_motorcycle" depart="202.43" departLane="best" from="-319060202#1" to="447792981#6"/>
    <trip id="moto89" type="moto_motorcycle" depart="204.73" departLane="best" from="316353905#6" to="-28451061#6"/>
    <trip id="moto90" type="moto_motorcycle" depart="207.03" departLane="best" from="227504216#6" to="-316170706#1"/>
    <trip id="moto91" type="moto_motorcycle" depart="209.33" departLane="best" from="316170713#0" to="-28424753#4"/>
    <trip id="moto92" type="moto_motorcycle" depart="211.63" departLane="best" from="-230594209#1" to="-28419931#2"/>
    <trip id="moto93" type="moto_motorcycle" depart="213.93" departLane="best" from="826067558" to="-28485643#6"/>
    <trip id="moto94" type="moto_motorcycle" depart="216.23" departLane="best" from="28419852#1" to="-447792981#7"/>
    <trip id="moto95" type="moto_motorcycle" depart="218.53" departLane="best" from="727832194" to="-28341080#0"/>
    <trip id="moto96" type="moto_motorcycle" depart="220.83" departLane="best" from="824731620#1" to="-28451061#2"/>
    <trip id="moto97" type="moto_motorcycle" depart="223.13" departLane="best" from="28413665#6" to="230599349#4"/>
    <trip id="moto98" type="moto_motorcycle" depart="225.43" departLane="best" from="-360828869#0" to="28275807#12"/>
    <trip id="moto99" type="moto_motorcycle" depart="227.73" departLane="best" from="-360279145#0" to="-230599365#1"/>
    <trip id="moto100" type="moto_motorcycle" depart="230.03" departLane="best" from="-727760806#1" to="-314269347"/>
    <trip id="moto101" type="moto_motorcycle" depart="232.33" departLane="best" from="-28413646#21" to="-824731617#2"/>
    <trip id="moto102" type="moto_motorcycle" depart="234.63" departLane="best" from="728048246#0" to="28420826#2"/>
    <trip id="moto103" type="moto_motorcycle" depart="236.93" departLane="best" from="28419908#0" to="230578274#1"/>
    <trip id="moto104" type="moto_motorcycle" depart="239.23" departLane="best" from="28413739#0" to="-319060205#4"/>
    <trip id="moto105" type="moto_motorcycle" depart="241.53" departLane="best" from="-28419989#7" to="-230594212"/>
    <trip id="moto106" type="moto_motorcycle" depart="243.83" departLane="best" from="319060208#0" to="-230599371"/>
    <trip id="moto107" type="moto_motorcycle" depart="246.13" departLane="best" from="-28419858#2" to="822185889#1"/>
    <trip id="moto108" type="moto_motorcycle" depart="248.43" departLane="best" from="230599358#1" to="-230599325#1"/>
    <trip id="moto109" type="moto_motorcycle" depart="250.74" departLane="best" from="-28439197#0" to="319060207#5"/>
    <trip id="moto110" type="moto_motorcycle" depart="253.04" departLane="best" from="28419970#1" to="85564975#3"/>
    <trip id="moto111" type="moto_motorcycle" depart="255.34" departLane="best" from="28413646#10" to="728422519#2"/>
    <trip id="moto112" type="moto_motorcycle" depart="257.64" departLane="best" from="360301040" to="28413668#15"/>
    <trip id="moto113" type="moto_motorcycle" depart="259.94" departLane="best" from="28438826#1" to="230599331#0"/>
    <trip id="moto114" type="moto_motorcycle" depart="262.24" departLane="best" from="360316354" to="28485610#4"/>
    <trip id="moto115" type="moto_motorcycle" depart="264.54" departLane="best" from="-28438826#2" to="28419825#6"/>
    <trip id="moto116" type="moto_motorcycle" depart="266.84" departLane="best" from="311851897#1" to="230599365#0"/>
    <trip id="moto117" type="moto_motorcycle" depart="269.14" departLane="best" from="26610044#3" to="-28413666#2"/>
    <trip id="moto118" type="moto_motorcycle" depart="271.44" departLane="best" from="-28424774#6" to="28424753#0"/>
    <trip id="moto119" type="moto_motorcycle" depart="273.74" departLane="best" from="-728422517" to="26610093#2"/>
    <trip id="moto120" type="moto_motorcycle" depart="276.04" departLane="best" from="-822185889#2" to="-28420103#5"/>
    <trip id="moto121" type="moto_motorcycle" depart="278.34" departLane="best" from="319512093#4" to="311851899#3"/>
    <trip id="moto122" type="moto_motorcycle" depart="280.64" departLane="best" from="-319060206#0" to="28420842#6"/>
    <trip id="moto123" type="moto_motorcycle" depart="282.94" departLane="best" from="230594197#1" to="-28413646#3"/>
    <trip id="moto124" type="moto_motorcycle" depart="285.24" departLane="best" from="28413684#9" to="-230594215#0"/>
    <trip id="moto125" type="moto_motorcycle" depart="287.54" departLane="best" from="-439625373#1" to="28186550#2"/>
    <trip id="moto126" type="moto_motorcycle" depart="289.84" departLane="best" from="-230594215#0" to="28419852#5"/>
    <trip id="moto127" type="moto_motorcycle" depart="292.14" departLane="best" from="28485643#6" to="316747951#2"/>
    <trip id="moto128" type="moto_motorcycle" depart="294.44" departLane="best" from="-28439197#9" to="-235210803#1"/>
    <trip id="moto129" type="moto_motorcycle" depart="296.74" departLane="best" from="-230594200#5" to="26610044#4"/>
    <trip id="moto130" type="moto_motorcycle" depart="299.04" departLane="best" from="28419881#1" to="314269353"/>
    <trip id="moto131" type="moto_motorcycle" depart="301.34" departLane="best" from="-230594201" to="-28413686#3"/>
    <trip id="moto132" type="moto_motorcycle" depart="303.64" departLane="best" from="-28413646#17" to="28420006#0"/>
    <trip id="moto133" type="moto_motorcycle" depart="305.94" departLane="best" from="-28419825#5" to="28413666#12"/>
    <trip id="moto134" type="moto_motorcycle" depart="308.24" departLane="best" from="316622212#5" to="824755237#0"/>
    <trip id="moto135" type="moto_motorcycle" depart="310.54" departLane="best" from="-28275806#0" to="-230594213#4"/>
    <trip id="moto136" type="moto_motorcycle" depart="312.84" departLane="best" from="-28275778#0" to="314269338#1"/>
    <trip id="moto137" type="moto_motorcycle" depart="315.14" departLane="best" from="-28413623#6" to="8285900#1"/>
    <trip id="moto138" type="moto_motorcycle" depart="317.44" departLane="best" from="314269352#8" to="-320649150#0"/>
    <trip id="moto139" type="moto_motorcycle" depart="319.74" departLane="best" from="319060207#6" to="316622214#0"/>
    <trip id="moto140" type="moto_motorcycle" depart="322.05" departLane="best" from="-8285902#1" to="28451047#0"/>
    <trip id="moto141" type="moto_motorcycle" depart="324.35" departLane="best" from="230578273#1" to="28413668#0"/>
    <trip id="moto142" type="moto_motorcycle" depart="326.65" departLane="best" from="319060209#1" to="-28419899#7"/>
    <trip id="moto143" type="moto_motorcycle" depart="328.95" departLane="best" from="-28420848#6" to="316171208"/>
    <trip id="moto144" type="moto_motorcycle" depart="331.25" departLane="best" from="-319060588" to="358321869#1"/>
    <trip id="moto145" type="moto_motorcycle" depart="333.55" departLane="best" from="28424774#3" to="-28485618#2"/>
    <trip id="moto146" type="moto_motorcycle" depart="335.85" departLane="best" from="-28119664#10" to="28439197#1"/>
    <trip id="moto147" type="moto_motorcycle" depart="338.15" departLane="best" from="230599267#2" to="305502018"/>
    <trip id="moto148" type="moto_motorcycle" depart="340.45" departLane="best" from="-28119664#8" to="-28424606#1"/>
    <trip id="moto149" type="moto_motorcycle" depart="342.75" departLane="best" from="28275810#1" to="230594206#1"/>
    <trip id="moto150" type="moto_motorcycle" depart="345.05" departLane="best" from="28485611#0" to="-316747964#0"/>
    <trip id="moto151" type="moto_motorcycle" depart="347.35" departLane="best" from="28424779#1" to="-28485604#2"/>
    <trip id="moto152" type="moto_motorcycle" depart="349.65" departLane="best" from="-28419931#1" to="-28413623#1"/>
    <trip id="moto153" type="moto_motorcycle" depart="351.95" departLane="best" from="235210803#2" to="305502409#2"/>
    <trip id="moto154" type="moto_motorcycle" depart="354.25" departLane="best" from="-28419908#6" to="-28420855#1"/>
    <trip id="moto155" type="moto_motorcycle" depart="356.55" departLane="best" from="230599258#3" to="28439212#4"/>
    <trip id="moto156" type="moto_motorcycle" depart="358.85" departLane="best" from="-299483417" to="-28186550#1"/>
    <trip id="moto157" type="moto_motorcycle" depart="361.15" departLane="best" from="-28419899#0" to="-230578274#2"/>
    <trip id="moto158" type="moto_motorcycle" depart="363.45" departLane="best" from="320649155#0" to="230599270#1"/>
    <trip id="moto159" type="moto_motorcycle" depart="365.75" departLane="best" from="321934113#3" to="28275806#6"/>
    <trip id="moto160" type="moto_motorcycle" depart="368.05" departLane="best" from="230594200#0" to="-85568387#4"/>
    <trip id="moto161" type="moto_motorcycle" depart="370.35" departLane="best" from="316622213#4" to="-469323991#1"/>
    <trip id="moto162" type="moto_motorcycle" depart="372.65" departLane="best" from="-230599373#1" to="28413725#1"/>
    <trip id="moto163" type="moto_motorcycle" depart="374.95" departLane="best" from="-230599331#1" to="-28413684#11"/>
    <trip id="moto164" type="moto_motorcycle" depart="377.25" departLane="best" from="28186529#3" to="-316170704#2"/>
    <trip id="moto165" type="moto_motorcycle" depart="379.55" departLane="best" from="85568387#7" to="-28413610#2"/>
    <trip id="moto166" type="moto_motorcycle" depart="381.85" departLane="best" from="311851894#1" to="28413666#1"/>
    <trip id="moto167" type="moto_motorcycle" depart="384.15" departLane="best" from="316170704#2" to="-28424753#12"/>
    <trip id="moto168" type="moto_motorcycle" depart="386.45" departLane="best" from="132901844#0" to="320641815"/>
    <trip id="moto169" type="moto_motorcycle" depart="388.75" departLane="best" from="28413684#4" to="28413666#7"/>
    <trip id="moto170" type="moto_motorcycle" depart="391.05" departLane="best" from="28451253#3" to="728422515"/>
    <trip id="moto171" type="moto_motorcycle" depart="393.36" departLane="best" from="-28420826#1" to="-28420848#10"/>
    <trip id="moto172" type="moto_motorcycle" depart="395.66" departLane="best" from="28419915#4" to="-28413715#3"/>
    <trip id="moto173" type="moto_motorcycle" depart="397.96" departLane="best" from="-28419852#8" to="-230599374#1"/>
    <trip id="moto174" type="moto_motorcycle" depart="400.26" departLane="best" from="28413643#1" to="-311851899#4"/>
    <trip id="moto175" type="moto_motorcycle" depart="402.56" departLane="best" from="-28424779#0" to="28424813#3"/>
    <trip id="moto176" type="moto_motorcycle" depart="404.86" departLane="best" from="28419925#2" to="469323993#2"/>
    <trip id="moto177" type="moto_motorcycle" depart="407.16" departLane="best" from="28419864#1" to="361378160"/>
    <trip id="moto178" type="moto_motorcycle" depart="409.46" departLane="best" from="-311851894#2" to="-28413646#10"/>
    <trip id="moto179" type="moto_motorcycle" depart="411.76" departLane="best" from="28420945#1" to="28424774#3"/>
    <trip id="moto180" type="moto_motorcycle" depart="414.06" departLane="best" from="230599280#1" to="-234376533#0"/>
    <trip id="moto181" type="moto_motorcycle" depart="416.36" departLane="best" from="-28119664#32" to="824731617#0"/>
    <trip id="moto182" type="moto_motorcycle" depart="418.66" departLane="best" from="729016165#1" to="99770070#1"/>
    <trip id="moto183" type="moto_motorcycle" depart="420.96" departLane="best" from="230594200#4" to="28419899#7"/>
    <trip id="moto184" type="moto_motorcycle" depart="423.26" departLane="best" from="28275817#9" to="28419825#1"/>
    <trip id="moto185" type="moto_motorcycle" depart="425.56" departLane="best" from="230599273#0" to="-28119664#31"/>
    <trip id="moto186" type="moto_motorcycle" depart="427.86" departLane="best" from="-320649151#1" to="-319060203#1"/>
    <trip id="moto187" type="moto_motorcycle" depart="430.16" departLane="best" from="-311851894#1" to="728119351#1"/>
    <trip id="moto188" type="moto_motorcycle" depart="432.46" departLane="best" from="316353906#6" to="28119664#15"/>
    <trip id="moto189" type="moto_motorcycle" depart="434.76" departLane="best" from="85564975#3" to="28419915#0"/>
    <trip id="moto190" type="moto_motorcycle" depart="437.06" departLane="best" from="305502406#1" to="-28420021#0"/>
    <trip id="moto191" type="moto_motorcycle" depart="439.36" departLane="best" from="28119664#0" to="447792774#0"/>
    <trip id="moto192" type="moto_motorcycle" depart="441.66" departLane="best" from="-28413723#1" to="28119664#19"/>
    <trip id="moto193" type="moto_motorcycle" depart="443.96" departLane="best" from="28119664#2" to="-28119664#8"/>
    <trip id="moto194" type="moto_motorcycle" depart="446.26" departLane="best" from="85568387#0" to="367410392"/>
    <trip id="moto195" type="moto_motorcycle" depart="448.56" departLane="best" from="22837906#2" to="-28341080#7"/>
    <trip id="moto196" type="moto_motorcycle" depart="450.86" departLane="best" from="-28485611#1" to="316747954#0"/>
    <trip id="moto197" type="moto_motorcycle" depart="453.16" departLane="best" from="826429746#1" to="-28424910#6"/>
    <trip id="moto198" type="moto_motorcycle" depart="455.46" departLane="best" from="396121255#3" to="230599344"/>
    <trip id="moto199" type="moto_motorcycle" depart="457.76" departLane="best" from="-28485618#2" to="316170704#4"/>
    <trip id="moto200" type="moto_motorcycle" depart="460.06" departLane="best" from="-822185888#1" to="727760806#1"/>
    <trip id="moto201" type="moto_motorcycle" depart="462.36" departLane="best" from="230599337#1" to="316622213#2"/>
    <trip id="moto202" type="moto_motorcycle" depart="464.67" departLane="best" from="28341080#3" to="85572504#1"/>
    <trip id="moto203" type="moto_motorcycle" depart="466.97" departLane="best" from="230599268#1" to="-28413684#1"/>
    <trip id="moto204" type="moto_motorcycle" depart="469.27" departLane="best" from="28275779#4" to="-28424794#4"/>
    <trip id="moto205" type="moto_motorcycle" depart="471.57" departLane="best" from="314269348" to="-230599282#2"/>
    <trip id="moto206" type="moto_motorcycle" depart="473.87" departLane="best" from="28485610#2" to="28424798#5"/>
    <trip id="moto207" type="moto_motorcycle" depart="476.17" departLane="best" from="316353905#8" to="-361378149"/>
    <trip id="moto208" type="moto_motorcycle" depart="478.47" departLane="best" from="28419931#1" to="316622213#2"/>
    <trip id="moto209" type="moto_motorcycle" depart="480.77" departLane="best" from="-230599267#2" to="230599326#1"/>
    <trip id="moto210" type="moto_motorcycle" depart="483.07" departLane="best" from="28413623#1" to="320649155#6"/>
    <trip id="moto211" type="moto_motorcycle" depart="485.37" departLane="best" from="230599373#2" to="193614220#2"/>
    <trip id="moto212" type="moto_motorcycle" depart="487.67" departLane="best" from="28419908#0" to="-28413689#4"/>
    <trip id="moto213" type="moto_motorcycle" depart="489.97" departLane="best" from="230594200#0" to="826118152#1"/>
    <trip id="moto214" type="moto_motorcycle" depart="492.27" departLane="best" from="28419881#0" to="319060210#1"/>
    <trip id="moto215" type="moto_motorcycle" depart="494.57" departLane="best" from="319060210#0" to="320641813"/>
    <trip id="moto216" type="moto_motorcycle" depart="496.87" departLane="best" from="-230599363#1" to="28413725#6"/>
    <trip id="moto217" type="moto_motorcycle" depart="499.17" departLane="best" from="28485611#3" to="-826429747"/>
    <trip id="moto218" type="moto_motorcycle" depart="501.47" departLane="best" from="28424730#1" to="360318388#1"/>
    <trip id="moto219" type="moto_motorcycle" depart="503.77" departLane="best" from="-28413668#9" to="234376524#6"/>
    <trip id="moto220" type="moto_motorcycle" depart="506.07" departLane="best" from="28186550#2" to="316170709"/>
    <trip id="moto221" type="moto_motorcycle" depart="508.37" departLane="best" from="-28419837" to="-234376524#7"/>
    <trip id="moto222" type="moto_motorcycle" depart="510.67" departLane="best" from="320649155#7" to="28413684#6"/>
    <trip id="moto223" type="moto_motorcycle" depart="512.97" departLane="best" from="-28424898#0" to="367410392"/>
    <trip id="moto224" type="moto_motorcycle" depart="515.27" departLane="best" from="-28439212#4" to="-28439226"/>
    <trip id="moto225" type="moto_motorcycle" depart="517.57" departLane="best" from="-227504216#1" to="316333787#0"/>
    <trip id="moto226" type="moto_motorcycle" depart="519.87" departLane="best" from="-320642824#2" to="28413610#2"/>
    <trip id="moto227" type="moto_motorcycle" depart="522.17" departLane="best" from="-28439197#12" to="319060205#5"/>
    <trip id="moto228" type="moto_motorcycle" depart="524.47" departLane="best" from="28275779#4" to="28275806#8"/>
    <trip id="moto229" type="moto_motorcycle" depart="526.77" departLane="best" from="-230599319#1" to="28413666#1"/>
    <trip id="moto230" type="moto_motorcycle" depart="529.07" departLane="best" from="-299483420#9" to="316171210#1"/>
    <trip id="moto231" type="moto_motorcycle" depart="531.37" departLane="best" from="28413665#9" to="-320649155#2"/>
    <trip id="moto232" type="moto_motorcycle" depart="533.67" departLane="best" from="28419825#10" to="28413684#9"/>
    <trip id="moto233" type="moto_motorcycle" depart="535.98" departLane="best" from="28420824" to="28439197#12"/>
    <trip id="moto234" type="moto_motorcycle" depart="538.28" departLane="best" from="28439278#1" to="-28119664#28"/>
    <trip id="moto235" type="moto_motorcycle" depart="540.58" departLane="best" from="-28419858#1" to="-28413659#6"/>
    <trip id="moto236" type="moto_motorcycle" depart="542.88" departLane="best" from="824731624#1" to="-28413668#0"/>
    <trip id="moto237" type="moto_motorcycle" depart="545.18" departLane="best" from="-360297392" to="316170706#2"/>
    <trip id="moto238" type="moto_motorcycle" depart="547.48" departLane="best" from="-230578274#1" to="242786618#2"/>
    <trip id="moto239" type="moto_motorcycle" depart="549.78" departLane="best" from="193440380#2" to="28420021#1"/>
    <trip id="moto240" type="moto_motorcycle" depart="552.08" departLane="best" from="-230594213#1" to="360277424"/>
    <trip id="moto241" type="moto_motorcycle" depart="554.38" departLane="best" from="316622214#3" to="361378170#1"/>
    <trip id="moto242" type="moto_motorcycle" depart="556.68" departLane="best" from="-28413665#7" to="193440380#0"/>
    <trip id="moto243" type="moto_motorcycle" depart="558.98" departLane="best" from="728422514" to="-822247611"/>
    <trip id="moto244" type="moto_motorcycle" depart="561.28" departLane="best" from="230599268#0" to="-728422518#0"/>
    <trip id="moto245" type="moto_motorcycle" depart="563.58" departLane="best" from="729016166#5" to="-230599258#3"/>
    <trip id="moto246" type="moto_motorcycle" depart="565.88" departLane="best" from="26652690#1" to="826429740#1"/>
    <trip id="moto247" type="moto_motorcycle" depart="568.18" departLane="best" from="-358036179#1" to="-447792981#2"/>