<?xml version="1.0" encoding="UTF-8"?>

<!-- generated on Thu Nov  5 09:24:55 2020 by Eclipse SUMO duarouter Version 1.7.0
<configuration xmlns:xsi="http://www.w3.org/2001/XMLSchema-instance" xsi:noNamespaceSchemaLocation="http://sumo.dlr.de/xsd/duarouterConfiguration.xsd">

    <input>
        <net-file value="/home/shashwath/Sumo/2020-11-05-09-24-44/osm.net.xml"/>
        <route-files value="/home/shashwath/Sumo/2020-11-05-09-24-44/osm.pedestrian.trips.xml"/>
    </input>

    <output>
        <output-file value="/home/shashwath/Sumo/2020-11-05-09-24-44/osm.pedestrian.rou.xml"/>
        <alternatives-output value="/home/shashwath/Sumo/2020-11-05-09-24-44/osm.pedestrian.rou.alt.xml"/>
    </output>

    <time>
        <begin value="0"/>
        <end value="3600"/>
    </time>

    <report>
        <no-warnings value="true"/>
        <ignore-errors value="true"/>
        <no-step-log value="true"/>
    </report>

</configuration>
-->

<routes xmlns:xsi="http://www.w3.org/2001/XMLSchema-instance" xsi:noNamespaceSchemaLocation="http://sumo.dlr.de/xsd/routes_file.xsd">
    <vType id="ped_pedestrian" vClass="pedestrian"/>
    <person id="ped0" type="ped_pedestrian" depart="0.00">
        <walk edges="28419825#4 28419825#3 28419825#2 -28419825#1 -28419852#4 -28419852#3 -28419852#2 -28419852#1 -28419852#0 -230599343 28119664#32 -234376524#8 234376524#7 234376524#6 234376524#5 -28413684#0 -28413684#1 -230594213#0"/>
    </person>
    <person id="ped1" type="ped_pedestrian" depart="0.94">
        <walk edges="28451050#4 -28451050#5 -28451050#6 -28451050#7 728422514 -28451061#5 28451061#6 193440378 193440380#3 193440380#2 193440380#1 193440380#0 230594200#0 230594200#1 230594200#2 230594200#3 230594200#4 230594200#5 230594200#6 230594200#7 -824731622 -28275778#10 -28275778#9 28420045#0 28420045#1"/>
    </person>
    <person id="ped2" type="ped_pedestrian" depart="1.87">
        <walk edges="360301035 28420848#2 316325902#0 28275779#9 28275779#10 316333787#1 -316333787#2 -316333787#3 -316333787#4 26654018#1 26654018#0 26654018#5 316622212#9 316622212#8 316622212#7 316622212#6 316622212#5 316622212#4 -28119664#13 -28119664#14 -28119664#15"/>
    </person>
    <person id="ped3" type="ped_pedestrian" depart="2.81">
        <walk edges="-824731619#2 -360301034 824731620#1 314269352#0 -824731622 -28275778#10 -28275778#9 28420045#0 28420045#1 28420045#2 -28419908#7 -28419908#6 -28419908#5 -28419908#3 -28419908#2 -28419908#1 -28419908#0 28119664#22 230599257#2 -28419868#3 -28419868#2 -230599255#1 -230599255#0"/>
    </person>
    <person id="ped4" type="ped_pedestrian" depart="3.75">
        <walk edges="-28420945#1 28420945#1 28420945#0 826118154#1 26653920#1 319512093#4 319512093#5 316353905#13 316353905#12 -824731622 -28275778#10 230599331#0 230599331#1 230599331#2 230599331#3 -28419899#6 -230599345#4 230599358#2 230599329#0 230599329#1"/>
    </person>
    <person id="ped5" type="ped_pedestrian" depart="4.69">
        <walk edges="-230594214#1 -230594214#0 -28413665#10 -28413665#9 -28413665#8 -28413665#7 -28413665#6 -28413665#5 -28413665#4 -28413665#3 -28413665#2 -28413665#1 230594200#1 230594200#2 230594200#3 230594200#4 230594200#5 230594200#6 230594200#7 -824731622 -28275778#10 -28275778#9 -28275778#8 -28275778#7 -28275778#6 -28275778#5 -28275778#4 -28275778#3 -28419989#5 -28419989#4 -28419989#3"/>
    </person>
    <person id="ped6" type="ped_pedestrian" depart="5.62">
        <walk edges="28419868#4 230599257#2 28119664#22 -28419908#0 -28419908#1 -28419908#2 -28419908#3 -28419908#5 -28419908#6 -28419908#7 28420045#2 28420045#1 28420045#0 -28275778#9 -28275778#10 -824731622 316353905#12 316353905#13 319512093#6 319512093#0 319512093#1 319512077 182993847#1 182993847#3 26652690#6 26652690#0"/>
    </person>
    <person id="ped7" type="ped_pedestrian" depart="6.56">
        <walk edges="-28420945#9 28420945#7 28420945#5 28420945#4 28420945#3 28420945#2 28420945#1 28420945#0 826118154#1 26653920#1 319512093#4 319512093#5 319512093#6 319512089 172599303#1 319511467 230594200#4 230594200#3 230594200#2 230594200#1 230594200#0 28275807#11 305502018 28275810#4 28275817#0 28275817#1 28275817#2 28413610#0"/>
    </person>
    <person id="ped8" type="ped_pedestrian" depart="7.50">
        <walk edges="316353905#1 -28413666#13 -28413666#12 -28413666#11 -28413666#10 -28413666#9 -28413666#8 -28413666#7 -28413666#6 -28413666#5 -28413666#4 -28413666#3 -28413666#2 -28413666#1 -28413666#0 28275807#1 -28413668#0 -28275817#8 -28413646#2 -28413646#1 28413646#0 305502408#6 -193440381#3 -193440381#2 -193440381#1"/>
    </person>
    <person id="ped9" type="ped_pedestrian" depart="8.44">
        <walk edges="316325903#2 316325903#3 -299483421#0 -299483417 -28424753#15 -28424753#14 28424753#13"/>
    </person>
    <person id="ped10" type="ped_pedestrian" depart="9.37">
        <walk edges="-319060209#3 -319060209#2 -319060209#1 -319060209#0 316333787#3 -316333787#4 26654018#1 26654018#0 -28275778#0 -28275778#1 -28275778#2 -28275778#3 -28275778#4 -28275778#5 -28275778#6 -28275778#7 -28275778#8 -28275778#9 -28275778#10 28275778#11 -230594200#7 -230578274#3 -230578274#2 -230578274#1 -230578274#0 -28413686#3 28275806#4 28275806#5 28275806#6 -28413692#0"/>
    </person>
    <person id="ped11" type="ped_pedestrian" depart="10.31">
        <walk edges="822185889#1 28419908#1 28419908#2 -28419908#3 -824755236 28419913#0 28419913#1 28419913#2 28419913#3 28419913#4 28419913#5 28419913#6 -28439197#12 -319060205#7 -319060205#6 -319060205#5"/>
    </person>
    <person id="ped12" type="ped_pedestrian" depart="11.25">
        <walk edges="319060205#2 319060205#4 -319060205#5 -319060205#6 -319060205#7 -28439197#12 316622212#4 -28119664#13 28119664#14 28119664#15 28119664#16 28119664#18 28119664#19 28119664#20 28119664#22 28119664#23 -28119664#24 -28119664#26 -28119664#27 -28119664#28 -28119664#29 -28119664#30 -28119664#31 -28119664#32 234376524#8 234376524#7 28413659#6"/>
    </person>
    <person id="ped13" type="ped_pedestrian" depart="12.19">
        <walk edges="316325905 -316170704#3 -316170704#2 -316170704#1 -28424901#0 826123412#1 316325903#3 316325903#2 316325903#1 316325903#0 -316333787#0 316333787#1 316333787#2 316333787#3 316333787#4 26654018#2 26654018#3 85568170#0 -28439272 -319060205#2 28420103#5 28420103#4 -28439232#2 28439232#3"/>
    </person>
    <person id="ped14" type="ped_pedestrian" depart="13.12">
        <walk edges="316747153 193440378 193440380#3 193440380#2 193440380#1 193440380#0 -28413686#0 -28413686#1 28413684#11 28413684#9 28413684#8 28413684#7 -28413684#6 -28413684#4 -28413684#3 -28413684#2 -28413684#1 -28413684#0 234376524#5 -230599273#2 28413646#11 28413646#12 28413675#0"/>
    </person>
    <person id="ped15" type="ped_pedestrian" depart="14.06">
        <walk edges="320524130#1 28439232#3 28439232#5 -28439232#6 -28439232#7 -319060203#1 -319060203#2 -319060205#7 -28439197#12 316622212#4 -28119664#13 28119664#14 28119664#15 28119664#16 28119664#18 28119664#19 28119664#20 28119664#22 28119664#23 -28119664#24 -28119664#26 -28119664#27 -28119664#28 -28119664#29 -28119664#30 -28119664#31 -230599343 822185888#1 822185888#0 230599301#0 314269352#11 314269352#12 314269352#13 314269352#14 28413646#17 -230599352#0 -230599352#1 -230599352#2 -230599352#3 28413668#14 230599374#1 -28413666#12 -28413666#11 -28413666#10 -28413666#9 -28413666#8 -28413666#7 -28413666#6 -28413666#5 -28413666#4 -28413666#3 -28413666#2 -28413666#1 -28413666#0 28275807#0"/>
    </person>
    <person id="ped16" type="ped_pedestrian" depart="15.00">
        <walk edges="28424794#1 28424798#1 -28424753#9 -28424753#8 -28424753#7 -28424753#6 -28424753#5 -28424753#4 -28424753#3 -28424753#2 28341080#6 28341080#7 367410391 367410392 728048246#3 728048246#4 319512093#2 319512093#1 319512093#0 319512093#6 316353905#13 316353905#12 314269352#1 314269352#2 314269352#3 314269352#4 314269352#5 314269352#6 314269352#7 314269352#8 314269352#9 28119664#32 -230599343 822185888#1 822185888#0 -230599301#0"/>
    </person>
    <person id="ped17" type="ped_pedestrian" depart="15.94">
        <walk edges="-28424753#3 -28424753#2 -28424753#1 -28424753#0 358302725#3 358302725#4 26652690#4 26652690#5 26652690#6 -26610093#2 -26610093#1 26610092#0 26610012#0 26610044#1 26610044#0 26610044#7 316747154#0 316747154#1 316747153 28451061#6 -28451061#5 728422514 -28451050#7 -28451050#6 -28451050#5 -28451050#4 -28451050#3 -311851894#1"/>
    </person>
    <person id="ped18" type="ped_pedestrian" depart="16.87">
        <walk edges="-234376529#0 -230599356#0 234376519#1 234376519#3 305502408#4 305502408#2 305502408#1 305502408#0 193440379#1 193440379#0 26610044#4 26610044#3 26610044#2 26610012#0 26610092#0 -26610093#1 -26610093#2 26652690#6 26652690#5 26652690#4 358302725#4 358302725#3 358302725#1 28424774#6 28424774#5 28424774#4 -28341080#2 -28341080#3 28424779#0 -28424779#1"/>
    </person>
    <person id="ped19" type="ped_pedestrian" depart="17.81">
        <walk edges="-28186550#1 -28186550#0 28186527#1 28186527#3 85572498 316747950#4 316747950#0 28131592#0 28131592#2 28131592#3 -28485611#0 -28485631#0"/>
    </person>
    <person id="ped20" type="ped_pedestrian" depart="18.75">
        <walk edges="28413739#6 -28413715#0 316353905#8 316353905#7 -28119664#32 28119664#31 132901844#0 -28419852#1 -28419852#2 -28419852#3 -28419852#4 -28419825#1 28419825#2 28419825#3 28419825#4 -447792981#0 -447792981#1 -447792981#2 -447792981#3 -447792981#4 -447792981#5 -447792981#6 -447792981#7 -447792981#8 -447792981#9 316622212#2 85568170#7 316622213#4 316622213#5 -316622214#3 -316622214#2 -360122666"/>
    </person>
    <person id="ped21" type="ped_pedestrian" depart="19.69">
        <walk edges="-360301035 360301041 -28420852#3 -28420852#1 -28420842#2"/>
    </person>
    <person id="ped22" type="ped_pedestrian" depart="20.62">
        <walk edges="-28451061#4 -728422514 -28451050#7 28451047#0 193440376#0 193440376#1 358989529#6 358989529#4 234376519#0 234376519#1 234376519#3 305502408#5 305502408#6 727779331#1"/>
    </person>
    <person id="ped23" type="ped_pedestrian" depart="21.56">
        <walk edges="28419864#0 447792981#1 -447792981#0 28419825#5 28419825#6 -230599366#1 -230599366#0 314269352#14 28413646#17 -230599352#0 -230599352#1 -230599352#2 -230599352#3 28413668#14 28413668#13 230599335#0 28413666#11"/>
    </person>
    <person id="ped24" type="ped_pedestrian" depart="22.50">
        <walk edges="-28419852#1 230599263#6 -28119664#29 -28119664#28 -28119664#27 -28119664#26 -28119664#24 28119664#23 28119664#22 28119664#20 28119664#19 28119664#18 28119664#16 28119664#15 28119664#14 -28119664#13 316622212#4 -28439197#12 -319060205#7 -319060203#2 -319060203#1 -28439232#7 -28439232#6 -28439232#5 -28439232#3 28439232#2 28439232#1"/>
    </person>
    <person id="ped25" type="ped_pedestrian" depart="23.44">
        <walk edges="85568167#3 316622214#1 -316622214#2 -316622214#3 316622213#5 316622213#4 316622213#3 316622212#0 314269350#1 28419825#11 28419825#10 28419825#9 28419825#8 28419825#7 28419825#6"/>
    </person>
    <person id="ped26" type="ped_pedestrian" depart="24.37">
        <walk edges="28119664#4 -28119664#5 28439217 -28439197#4 28439232#8 -28439232#7 -28439232#6 -28439232#5 -28439232#3 -28439232#2 28420103#4 28420103#5 -319060205#2 -28439272 85568170#0 26654018#3 26654018#2 316333787#4 316333787#3 316333787#2 316333787#1 28275779#10 28275779#9 28275779#7 -28419989#1 28420848#6 28420848#7"/>
    </person>
    <person id="ped27" type="ped_pedestrian" depart="25.31">
        <walk edges="-28424753#6 -28424753#5 -28424753#4 -28424753#3 -28424753#2 28341080#6 28341080#7 367410391 367410392 728048246#3 728048246#4 319512093#2 319512093#1 319512093#0 319512093#6 316353905#13 316353905#12 314269352#1 314269352#2 314269352#3 230599373#0 -230599373#1 -230599274#0 -230599274#1 -28419947#0 -28419947#1 -230599258#0 -230599258#1"/>
    </person>
    <person id="ped28" type="ped_pedestrian" depart="26.25">
        <walk edges="-316171210#3 826429723 28341080#2 28424774#4 28424774#5 28424774#6 358302725#1 358302725#3 358302725#4 26652690#4 26652690#5 26652690#6 26652690#0 22837906#0 22837906#1 22837906#2 22837906#3 22837906#4 22837906#5 22837906#6 -28451253#0 -28451253#1 -28451253#2 -28451253#3 28451181#1 -28451181#0"/>
    </person>
    <person id="ped29" type="ped_pedestrian" depart="27.19">
        <walk edges="-28420848#0 -28420848#1 -28420848#2 -28420848#4 -28420848#5 -28420848#6 28420848#7 28420848#8 28420848#9 28420848#10 28420848#12 26653920#1 319512093#3 728048246#4 728048246#3 728048246#1 728048246#0 26652690#4 26652690#3 26652690#2 736374141 26652692#2 26652692#0 826429730 -729016165#1 728065452"/>
    </person>
    <person id="ped30" type="ped_pedestrian" depart="28.12">
        <walk edges="357021876 311852704#2 311852704#3 -28451253#5 -28451253#3 -28451253#2 -28451253#1 -28451253#0 22837906#6 22837906#5 22837906#4 22837906#3 22837906#2 22837906#1 22837906#0 26652690#1 26652690#2 26652690#3 -358302725#4 -358302725#3 -358302725#1 -28424774#6 -28424774#5 -28424774#4 -28341080#1 -316171209"/>
    </person>
    <person id="ped31" type="ped_pedestrian" depart="29.06">
        <walk edges="28419907#3 -28419925#0 316622212#6 316622212#7 316622212#8 316622212#9 26654018#5 26654018#0 26654018#1 -316333787#4 -316333787#3 -316333787#2 316333787#1 -316333787#0 316325903#0 316325903#1 316325903#2 316325903#3 826123412#1 -28424901#0 316170704#1 -439625374#0"/>
    </person>
    <person id="ped32" type="ped_pedestrian" depart="30.00">
        <walk edges="-28451050#5 -28451050#6 -28451050#7 728422514 -28451061#5 28451061#6 316747153 316747154#1 316747154#0 26610044#7 26610044#0 26610044#1 26610012#0 26610092#0 -26610093#1 -26610093#2 26652690#6 26652690#5 26652690#4 358302725#4 358302725#3 358302725#1 28424774#6 28424774#5 28424774#4 28424774#3 28424774#2 -28424813#5 -28424813#4 -28424813#3 -28424813#2 -28424813#1 -28424813#0 28424798#5 -28424942#1 -28424942#0"/>
    </person>
    <person id="ped33" type="ped_pedestrian" depart="30.94">
        <walk edges="28275817#4 230594197#2 230594197#1 230594197#0 28413623#2 -28413611#0 305502406#1 305502406#0 305502408#0 193440379#1 193440379#0 26610044#4 26610044#3 26610044#2 26610012#0 26610092#0 26610093#0 26610093#2 26652690#0 26652690#1 736374141 26652692#2 26652692#0 826429730 -729016165#1 -728065452 85572502#12 85572502#11 85572502#10 85572502#9 85572502#8 85572502#7 85572502#6 85572502#5 85572502#4 360316347#1"/>
    </person>
    <person id="ped34" type="ped_pedestrian" depart="31.87">
        <walk edges="-447792981#4 -230599257#0 -230599257#1 -230599257#2 28119664#20 28119664#19 28119664#18 28119664#16 28119664#15 28119664#14 -28119664#13 316622212#4 316622212#5 316622212#6 316622212#7 316622212#8 316622212#9 26654018#5 26654018#0 26654018#1 -316333787#4 -316333787#3 -316333787#2 316333787#1 28275779#10 28275779#9 316325902#0 28420848#2 -360301041 -28420852#4 -28420859 -28420945#3"/>
    </person>
    <person id="ped35" type="ped_pedestrian" depart="32.81">
        <walk edges="-28119664#29 -28119664#30 -28119664#31 -230599343 822185888#1 822185888#0 230599301#0 314269352#11 314269352#12 314269352#13 314269352#14 28413646#17 -230599352#0 -230599352#1 -230599352#2 -230599352#3 28413668#14 28413668#13 28413668#12 28413668#11 -230599308"/>
    </person>
    <person id="ped36" type="ped_pedestrian" depart="33.75">
        <walk edges="-28275806#4 -230578271#0 -28413684#9 28413692#2"/>
    </person>
    <person id="ped37" type="ped_pedestrian" depart="34.69">
        <walk edges="316170704#2 -316170704#1 -28424901#0 826123412#1 316325903#3 28420945#5 28420945#4 28420945#3 28420945#2 28420945#1 28420945#0 826118154#1 26653920#1 319512093#4 319512093#5 316353905#13 -824731620#1 -824731620#0"/>
    </person>
    <person id="ped38" type="ped_pedestrian" depart="35.62">
        <walk edges="85572502#12 -728065452 -729016165#1 728048247 728048248 22837906#6 28451253#0 28451276#2 28451276#3 28451276#4 -140226540#1 -140226540#0 140226539#3 -8285902#1 -8285902#0 316747150#3 26610044#7 316747154#0 316747154#1 316747153 358989529#10 358989529#9 358989529#8 358989529#7 358989529#6 358989529#4 234376519#0"/>
    </person>
    <person id="ped39" type="ped_pedestrian" depart="36.56">
        <walk edges="826123412#4 439625377#1 28424898#2 28424898#1 28424898#0 -299483420#3 -299483420#4 -299483420#6 -299483420#7 -299483420#8 -299483420#9 155240602 28186529#3 28186529#2 -28186527#0 -28186527#2 -28186527#3 -85572498 316747950#2 729085243#6 729085243#5 729085243#4 729085243#3 -319885593#0 319885601"/>
    </person>
    <person id="ped40" type="ped_pedestrian" depart="37.50">
        <walk edges="-227504216#7 316333787#1 -316333787#2 -316333787#3 -316333787#4 26654018#1 26654018#0 -28275778#0 -28275778#1 -28275778#2 -28275778#3 -28275778#4 -28275778#5 -28275778#6 -28275778#7 -28275778#8 -28275778#9 -28275778#10 -824731622 230594200#7 230594200#6 230594200#5 230594200#4 230594200#3 230594200#2 230594200#1 230594200#0 28275807#11 305502018 28275810#4 28275817#0 28275817#1 28275817#2 28275817#3 28275817#4 28275817#5 28275817#7 28275817#8 28275817#9 28438826#1 28438826#3"/>
    </person>
    <person id="ped41" type="ped_pedestrian" depart="38.44">
        <walk edges="28420842#6 -358010825#5 -358010825#4 -358010825#3 -358010825#2 -358010825#1 -358010825#0 -824731619#2 -360301034 824731620#1 824731624#1 319511469#0 319511469#2 235210803#2"/>
    </person>
    <person id="ped42" type="ped_pedestrian" depart="39.37">
        <walk edges="-28451061#4 28451061#5 28451061#6 193440378 193440380#3 193440380#2 193440380#1 193440380#0 -28413686#0 -28413686#1 28413684#11 28413684#9 28413684#8 28413684#7 -28413684#6 -28413684#4 -28413684#3 -28413684#2 -28413684#1 -28413684#0 234376524#5 234376524#6 234376524#7 -234376524#8 28119664#32 -230599343 -28419852#0 -28419852#1 -28419852#2 -28419852#3 -28419852#4 -28419825#1 28419825#2 28419825#3 28419825#4 28419825#5 28419825#6 28419825#7 28419825#8 28419825#9"/>
    </person>
    <person id="ped43" type="ped_pedestrian" depart="40.31">
        <walk edges="-28275810#1 28275810#2 28275810#3 28275810#4 28275817#0 -230599266 193440380#2 193440380#3 8285900#0 8285900#1 26610044#6 26610044#7 316747150#3 -8285902#0 -8285902#1 140226539#3 -140226540#0 -140226540#1 28451276#4 28451276#3 28451276#2 28451253#0 22837906#6 728048248 728048247 729016165#1 85564965#0 85564965#1 85564965#2 -28485611#8 -28485611#7 -28485611#6 -28485611#5 -28485611#4 -826429747"/>
    </person>
    <person id="ped44" type="ped_pedestrian" depart="41.25">
        <walk edges="357021875 -311851901#0 -140226538#0 140226539#4 8285902#1 -8285902#0 316747150#3 26610044#7 316747154#0 316747154#1 316747153 28451061#6 -28451061#5 728422514 -28451050#7 28451047#0 -28451047#1 -28451047#2 -28451047#3 -28451047#4 -28451047#6"/>
    </person>
    <person id="ped45" type="ped_pedestrian" depart="42.19">
        <walk edges="230599317#1 230599349#2 28419908#1 28419908#0 28119664#22 230599257#2 -28419868#4"/>
    </person>
    <person id="ped46" type="ped_pedestrian" depart="43.12">
        <walk edges="361378171 -319060200#0 -320524130#1 -28439232#3 -28439232#5 -28439232#6 -28439232#7 -319060203#1 -319060203#2 -319060205#7 320649155#8 320649155#7 320649155#6 320649155#5 320649155#4 320649155#3 320649155#2 320649155#1 320649155#0"/>
    </person>
    <person id="ped47" type="ped_pedestrian" depart="44.06">
        <walk edges="-315415082#0 28438826#3 28438826#1 396121253#2 28275807#0 -28413666#0 -28413666#1 -28413666#2 -28413666#3 -28413666#4 -28413666#5 -28413666#6 -28413666#7 -28413666#8 -28413666#9 -28413666#10 -28413666#11 -28413666#12 230599374#1 28413668#14 -230599352#3 -230599352#2 -230599352#1 -230599352#0 28413646#17 314269352#14 314269352#13 230599256#0 230599263#2 -28419854#1 28419825#3"/>
    </person>
    <person id="ped48" type="ped_pedestrian" depart="45.00">
        <walk edges="28413666#10 230599308 28413668#10 28413668#9 28413659#9 28413659#8 28413659#7 28413659#6 28413659#5 28413659#4 28413659#2 28413659#1 -28413739#1 -28275806#9 -28275806#8 -28275806#7 -28275806#6 -28275806#5 28275806#4 -28413686#3"/>
    </person>
    <person id="ped49" type="ped_pedestrian" depart="45.94">
        <walk edges="305502408#1 305502408#0 193440379#1 193440379#0 26610044#4 26610044#3 26610044#2 26610012#0"/>
    </person>
    <person id="ped50" type="ped_pedestrian" depart="46.87">
        <walk edges="314269352#11 314269352#12 314269352#13 314269352#14 28413646#17 28413646#16 28413646#15 28413646#14 28413646#12 28413646#11 28413646#10 28413646#9 28413646#8 28413646#7 28413646#6 28413646#5 28413646#4 -28413646#3 -28413646#2 -28413646#1 -28413646#0 727779331#1 234376521#3"/>
    </person>
    <person id="ped51" type="ped_pedestrian" depart="47.81">
        <walk edges="-230594200#5 -230594200#6 -230594200#7 28275778#11 28275778#10 -230599331#0 -28420006#2 -28420045#1 -28420045#2 28419908#7 28419908#6 28419908#5 28419908#3 28419908#2 28419908#1 28419908#0 28119664#22 230599257#2 230599257#1 230599257#0 447792981#4"/>
    </person>
    <person id="ped52" type="ped_pedestrian" depart="48.75">
        <walk edges="358036179#0 -319060206#2 26654018#2 26654018#1 -85568387#0 -85568387#2 -85568387#3 -85568387#4 -85568387#5 -85568387#7 -824731620#0 -824731620#1 316353905#13 319512093#6 319512093#0 319512093#1 319512077 182993847#1 182993847#3 26652690#6 26652690#0 22837906#0 22837906#1 22837906#2 316747673"/>
    </person>
    <person id="ped53" type="ped_pedestrian" depart="49.69">
        <walk edges="-316170707#1 -28424753#10 -28424753#9 -28424753#8 -28424753#7 -28424753#6 -28424753#5 -28424753#4 -28424753#3 -28424753#2 28341080#6 28341080#7 367410391 367410392 728048246#3 728048246#4 319512093#2 319512093#1 319512093#0 319512093#6 316353905#13 316353905#12 -824731622 -28275778#10 230599331#0 230599331#1 230599331#2 230599331#3 -28419899#6 -230599345#4 -230599345#3 -230599345#2"/>
    </person>
    <person id="ped54" type="ped_pedestrian" depart="50.62">
        <walk edges="358036178#0 319060209#0 -316333787#3 -316333787#4 26654018#1 26654018#0 -28275778#0 -28275778#1 -28275778#2 -28275778#3 -28275778#4 -28275778#5 -28275778#6 -28275778#7 -28275778#8 -28275778#9 -28275778#10 -824731622 230594200#7 230594200#6 230594200#5 230594200#4 230594200#3 230594200#2 230594200#1 230594200#0 193440380#0 193440380#1 193440380#2 193440380#3 193440378 28451061#6 -28451061#5 728422514 28451050#7 728422515"/>
    </person>
    <person id="ped55" type="ped_pedestrian" depart="51.56">
        <walk edges="-28119664#1 -28119664#2 -28119664#4 28119664#5 28119664#6 28119664#7 28119664#8 28119664#9 28119664#10 28119664#11 28119664#13 28119664#14 28119664#15 28119664#16 28119664#18 28119664#19 28119664#20 28119664#22 28119664#23 -28119664#24 -28119664#26 -28119664#27 -28119664#28 -28119664#29 230599263#6 230599263#5 230599263#4 230599263#3 230599263#2 230599263#1"/>
    </person>
    <person id="ped56" type="ped_pedestrian" depart="52.50">
        <walk edges="-230599363#3 -28419899#1 230599288#2 230599288#1 230599288#0 -28420006#6 -28420006#5 -28420006#4 -230599253 28275778#8 -28275778#9 -28275778#10 -824731622 230594200#7 230594200#6 230594200#5 230594200#4 230594200#3 230594200#2 230594200#1 230594200#0 28275807#11 305502018"/>
    </person>
    <person id="ped57" type="ped_pedestrian" depart="53.43">
        <walk edges="311851894#1 311851894#2 193440376#0 193440376#1 305502409#2 305502409#0 28413611#2 28413611#0 -28413623#2 -230594197#0 -230594197#1 -230594197#2 -28275817#4 28275817#5 728119350#1 360279144#1 28275807#3 -28413646#4"/>
    </person>
    <person id="ped58" type="ped_pedestrian" depart="54.37">
        <walk edges="-28451050#5 -28451050#4 -28451050#3 311851894#2 193440376#0 193440376#1 305502409#2 305502409#0 28413611#2 28413611#0 -28413623#2 -230594197#0 -230594197#1 -230594197#2 -28275817#4 28275817#5 728119350#1 728119350#2 234376524#0 234376524#1 234376524#2 234376524#3 234376524#4 234376524#5 234376524#6 234376524#7 234376524#8 -28119664#32 -28119664#31 -28119664#30 -28119664#29 -28119664#28 -28119664#27 -28119664#26 -28119664#24 28119664#23 28119664#22 28119664#20 28119664#19 28119664#18 28119664#16 28119664#15 28119664#14 28119664#13 28119664#11 320649155#7 320649155#6"/>
    </person>
    <person id="ped59" type="ped_pedestrian" depart="55.31">
        <walk edges="-824731624#1 172599303#1 319512089 319512093#6 319512093#5 319512093#4 26653920#1 28420848#12 28420848#10 28420848#9 28420848#8 28420848#7 -28420848#6 -28420848#5 -28420848#4 -28420848#2"/>
    </person>
    <person id="ped60" type="ped_pedestrian" depart="56.25">
        <walk edges="24563872 -315415082#1 -28438826#3 -28438826#2 396121253#2 28275807#0 -28413666#0 -28413666#1 -28413666#2 -28413666#3 -28413666#4 -28413666#5 -28413666#6 -28413666#7 -28413666#8 -28413666#9 -28413666#10 -28413666#11 -28413666#12 230599374#1 28413668#14 -230599352#3 -230599352#2 -230599352#1 -230599352#0 28413646#17 314269352#14 314269352#13 314269352#12 314269352#11 230599301#0 822185888#0 822185888#1 -230599343 -28119664#31 -28119664#30 -28119664#29 -28119664#28 -28119664#27 -28119664#26 -28119664#24 28119664#23 28119664#22 28119664#20 28119664#19 28119664#18 28119664#16 28119664#15 28119664#14 -28119664#13 316622212#4 -28439197#12 -319060205#7 -319060203#2 -319060203#1 -28439232#7 -28439232#6 28439232#5"/>
    </person>
    <person id="ped61" type="ped_pedestrian" depart="57.18">
        <walk edges="-28420006#2 230599331#0 -28275778#10 -824731622 316353905#12 316353905#13 319512093#6 319512093#0 319512093#1 319512093#2 728048246#4 728048246#3 367410392 -367410391 -28341080#7 -28341080#6 -28341080#5 -28341080#4 -28341080#3 -28341080#2 -28341080#1 -28341080#0 299483420#9 -316171201#2"/>
    </person>
    <person id="ped62" type="ped_pedestrian" depart="58.12">
        <walk edges="-319060206#2 26654018#2 26654018#1 -85568387#0 -85568387#2 -85568387#3 -85568387#4 -85568387#5 -85568387#7 -824731620#0 -824731620#1 316353905#13 319512093#6 319512093#0 319512093#1 319512093#2 728048246#4 728048246#3 367410392 367410391 28341080#7 28341080#6 28341080#5"/>
    </person>
    <person id="ped63" type="ped_pedestrian" depart="59.06">
        <walk edges="-28424774#0 28424774#1 -28424813#5 -28424813#4 -28424813#3 -28424813#2 -28424813#1 -28424813#0 28424953#0 28424953#1 28424753#13 -28424753#14 -28424753#15 -299483417 -299483421#0 826123410#1 -28420945#7"/>
    </person>
    <person id="ped64" type="ped_pedestrian" depart="60.00">
        <walk edges="-230599367#0 -230599331#2 -230599373#2 230599274#0 -230599265#1 -230599265#0 314269352#5 314269352#6 314269352#7 314269352#8 314269352#9 234376524#8 28413723#4"/>
    </person>
    <person id="ped65" type="ped_pedestrian" depart="60.93">
        <walk edges="-28424753#6 -28424753#5 -28424753#4 -28424753#3 316171211#0 -826429722#0 -28341080#4 -28341080#3 -28341080#2 -28341080#1 -28341080#0 299483420#9 155240602 28186529#3 28186529#2 727818894 -360318388#0 -360318384#0 -360318384#1 -360318384#2 360318384#3"/>
    </person>
    <person id="ped66" type="ped_pedestrian" depart="61.87">
        <walk edges="-28424813#2 -28424813#1 -28424813#0 28424953#0 28424953#1 28424753#13 -28424753#14 -28424753#15 -299483417 -299483421#0 316325903#3 28420945#5 -28420945#4 -28420859 28419989#0"/>
    </person>
    <person id="ped67" type="ped_pedestrian" depart="62.81">
        <walk edges="-28420852#0 28420842#3 -28420848#0 -316333787#0 316333787#1 -316333787#2 -316333787#3 -316333787#4 26654018#1 26654018#0 -28275778#0 -28275778#1 -28275778#2 -28275778#3 -28275778#4 -28275778#5 -28275778#6 -28275778#7 -28275778#8 -28275778#9 -28275778#10 28275778#11 316353905#11 316353905#10 28413739#10 28413739#9 28413739#8 28413739#7 28413739#6 28413739#5 28413739#4 28413739#3 -28413739#1 -28413659#1 -28413659#2 -28413659#4 -28413659#5"/>
    </person>
    <person id="ped68" type="ped_pedestrian" depart="63.75">
        <walk edges="727779330#4 28451047#6 -230599327#0 230599327#1 230599327#3 358989529#3 234376519#0 234376519#1 234376519#3 728119351#0 728119351#1 728119351#2 -28413623#4 28413623#3 -230594197#0 -230594197#1 -230594197#2 28275817#3 28275817#2 28275817#1 28275817#0 28275810#4 305502018 28275807#11 230594200#0 230594200#1 230594200#2 230594200#3 230594200#4 230594200#5 230594200#6 230594200#7 -824731622 -28275778#10 28275778#9"/>
    </person>
    <person id="ped69" type="ped_pedestrian" depart="64.68">
        <walk edges="230594201 230594200#2 230594200#1 230594200#0 28275807#11 305502018 28275810#4 28275817#0 28275817#1 28275817#2 28275817#3 28275817#4 28275817#5 -28275817#7 -28275817#8 -28275817#9 -28438826#2 -28438826#3 315415082#0"/>
    </person>
    <person id="ped70" type="ped_pedestrian" depart="65.62">
        <walk edges="316333787#0 316333787#1 -316333787#2 -316333787#3 -316333787#4 26654018#1 26654018#0 26654018#5 316622212#9 316622212#8 316622212#7 316622212#6 -28419925#0"/>
    </person>
    <person id="ped71" type="ped_pedestrian" depart="66.56">
        <walk edges="-28186527#2 -28186527#0 28186529#2 28186529#3 155240602 -316171201#2 -316171201#1 316171203#1 316171205#1 826429738 -826429738"/>
    </person>
    <person id="ped72" type="ped_pedestrian" depart="67.50">
        <walk edges="-824755236 -28419908#3 -28419908#2 -28419908#1 -28419908#0 -28119664#23 -28119664#24 -28119664#26 -28119664#27 -28119664#28 -28119664#29 -28119664#30 -28119664#31 -28119664#32 316353905#7 -28413725#6 28413725#5 230578275"/>
    </person>
    <person id="ped73" type="ped_pedestrian" depart="68.43">
        <walk edges="28439232#1 -28420103#4 -28420103#5 -319060205#2 -28439272 85568170#0 26654018#4 26654018#5 28275778#0 28275778#1 28275778#2 28275778#3 28275778#4 28275778#5 28275778#6 230599361 28420006#5"/>
    </person>
    <person id="ped74" type="ped_pedestrian" depart="69.37">