<?xml version="1.0" encoding="UTF-8"?>

<!-- generated on Thu Nov  5 09:25:15 2020 by Eclipse SUMO duarouter Version 1.7.0
<configuration xmlns:xsi="http://www.w3.org/2001/XMLSchema-instance" xsi:noNamespaceSchemaLocation="http://sumo.dlr.de/xsd/duarouterConfiguration.xsd">

    <input>
        <net-file value="/home/shashwath/Sumo/2020-11-05-09-24-44/osm.net.xml"/>
        <route-files value="/home/shashwath/Sumo/2020-11-05-09-24-44/osm.bicycle.trips.xml"/>
    </input>

    <output>
        <output-file value="/home/shashwath/Sumo/2020-11-05-09-24-44/osm.bicycle.trips.xml.tmp"/>
        <write-trips value="true"/>
    </output>

    <time>
        <begin value="0"/>
        <end value="3600"/>
    </time>

    <report>
        <no-warnings value="true"/>
        <ignore-errors value="true"/>
        <no-step-log value="true"/>
    </report>

</configuration>
-->

<routes xmlns:xsi="http://www.w3.org/2001/XMLSchema-instance" xsi:noNamespaceSchemaLocation="http://sumo.dlr.de/xsd/routes_file.xsd">
    <vType id="bike_bicycle" vClass="bicycle"/>
    <trip id="bike0" type="bike_bicycle" depart="0.00" departLane="best" from="28419825#7" to="-230594213#0"/>
    <trip id="bike1" type="bike_bicycle" depart="1.53" departLane="best" from="-28485611#7" to="-28424730#1"/>
    <trip id="bike2" type="bike_bicycle" depart="3.07" departLane="best" from="28451050#7" to="28420826#0"/>
    <trip id="bike3" type="bike_bicycle" depart="4.60" departLane="best" from="360301043#1" to="-28119664#15"/>
    <trip id="bike4" type="bike_bicycle" depart="6.13" departLane="best" from="-824731622" to="-230599255#1"/>
    <trip id="bike5" type="bike_bicycle" depart="7.67" departLane="best" from="-28420945#4" to="230599331#2"/>
    <trip id="bike6" type="bike_bicycle" depart="9.20" departLane="best" from="-230594214#1" to="-28419989#5"/>
    <trip id="bike7" type="bike_bicycle" depart="10.73" departLane="best" from="28419881#0" to="26652690#6"/>
    <trip id="bike8" type="bike_bicycle" depart="12.27" departLane="best" from="-28422564#2" to="28413623#3"/>
    <trip id="bike9" type="bike_bicycle" depart="13.80" departLane="best" from="316353905#2" to="-193440381#1"/>
    <trip id="bike10" type="bike_bicycle" depart="15.34" departLane="best" from="316325905" to="28424753#7"/>
    <trip id="bike11" type="bike_bicycle" depart="16.87" departLane="best" from="-319060588" to="-28413692#2"/>
    <trip id="bike12" type="bike_bicycle" depart="18.40" departLane="best" from="822197820#0" to="-319060206#1"/>
    <trip id="bike13" type="bike_bicycle" depart="19.94" departLane="best" from="-28119664#7" to="-28186527#3"/>
    <trip id="bike14" type="bike_bicycle" depart="21.47" departLane="best" from="319060206#2" to="28413665#3"/>
    <trip id="bike15" type="bike_bicycle" depart="23.00" departLane="best" from="316333787#4" to="28439243#1"/>
    <trip id="bike16" type="bike_bicycle" depart="24.54" departLane="best" from="242786618#0" to="826362131#0"/>
    <trip id="bike17" type="bike_bicycle" depart="26.07" departLane="best" from="-360316365#2" to="28119664#22"/>
    <trip id="bike19" type="bike_bicycle" depart="29.14" departLane="best" from="320642823" to="28275807#3"/>
    <trip id="bike20" type="bike_bicycle" depart="30.67" departLane="best" from="28424794#4" to="-230599301#0"/>
    <trip id="bike21" type="bike_bicycle" depart="32.20" departLane="best" from="-28424753#6" to="-311851897#0"/>
    <trip id="bike22" type="bike_bicycle" depart="33.74" departLane="best" from="-234376529#1" to="-28424794#2"/>
    <trip id="bike23" type="bike_bicycle" depart="35.27" departLane="best" from="-28186550#3" to="-28485643#1"/>
    <trip id="bike24" type="bike_bicycle" depart="36.81" departLane="best" from="28413739#9" to="-360279145#1"/>
    <trip id="bike25" type="bike_bicycle" depart="38.34" departLane="best" from="-360301041" to="-28420842#4"/>
    <trip id="bike26" type="bike_bicycle" depart="39.87" departLane="best" from="-28451181#1" to="727779330#6"/>
    <trip id="bike27" type="bike_bicycle" depart="41.41" departLane="best" from="28419868#1" to="28413666#6"/>
    <trip id="bike28" type="bike_bicycle" depart="42.94" departLane="best" from="-28419852#11" to="28439243#0"/>
    <trip id="bike29" type="bike_bicycle" depart="44.47" departLane="best" from="-28413739#5" to="-360318368"/>
    <trip id="bike30" type="bike_bicycle" depart="46.01" departLane="best" from="85568167#3" to="28419852#1"/>
    <trip id="bike31" type="bike_bicycle" depart="47.54" departLane="best" from="28119664#7" to="28420852#6"/>
    <trip id="bike32" type="bike_bicycle" depart="49.07" departLane="best" from="319060202#1" to="314269352#12"/>
    <trip id="bike33" type="bike_bicycle" depart="50.61" departLane="best" from="-28424753#9" to="-230599258#1"/>
    <trip id="bike34" type="bike_bicycle" depart="52.14" departLane="best" from="-316324346" to="-28451253#0"/>
    <trip id="bike35" type="bike_bicycle" depart="53.67" departLane="best" from="-28420848#10" to="728048252#1"/>
    <trip id="bike36" type="bike_bicycle" depart="55.21" departLane="best" from="358036178#1" to="-316171210#4"/>
    <trip id="bike37" type="bike_bicycle" depart="56.74" departLane="best" from="28419908#2" to="-439625377#0"/>
    <trip id="bike38" type="bike_bicycle" depart="58.27" departLane="best" from="367410397" to="227504216#2"/>
    <trip id="bike39" type="bike_bicycle" depart="59.81" departLane="best" from="-28451061#1" to="-28424953#0"/>
    <trip id="bike40" type="bike_bicycle" depart="61.34" departLane="best" from="28131592#5" to="-28451047#6"/>
    <trip id="bike41" type="bike_bicycle" depart="62.88" departLane="best" from="28275817#7" to="360316363#0"/>
    <trip id="bike42" type="bike_bicycle" depart="64.41" departLane="best" from="-447792981#7" to="-28420945#7"/>
    <trip id="bike43" type="bike_bicycle" depart="65.94" departLane="best" from="85572502#7" to="230599345#3"/>
    <trip id="bike44" type="bike_bicycle" depart="67.48" departLane="best" from="-28119664#30" to="-230599308"/>
    <trip id="bike45" type="bike_bicycle" depart="69.01" departLane="best" from="-28275806#5" to="28413715#5"/>
    <trip id="bike46" type="bike_bicycle" depart="70.54" departLane="best" from="316170706#2" to="-824731622"/>
    <trip id="bike47" type="bike_bicycle" depart="72.08" departLane="best" from="-230599356#1" to="-360318384#3"/>
    <trip id="bike48" type="bike_bicycle" depart="73.61" departLane="best" from="85572502#12" to="234376521#3"/>
    <trip id="bike49" type="bike_bicycle" depart="75.14" departLane="best" from="826123412#5" to="320642822#1"/>
    <trip id="bike50" type="bike_bicycle" depart="76.68" departLane="best" from="-227504216#7" to="28439197#12"/>
    <trip id="bike51" type="bike_bicycle" depart="78.21" departLane="best" from="28420848#10" to="242786618#3"/>
    <trip id="bike52" type="bike_bicycle" depart="79.74" departLane="best" from="-28451181#0" to="28419852#12"/>
    <trip id="bike53" type="bike_bicycle" depart="81.28" departLane="best" from="-28275810#2" to="-826429749"/>
    <trip id="bike54" type="bike_bicycle" depart="82.81" departLane="best" from="193440379#1" to="729085243#0"/>
    <trip id="bike55" type="bike_bicycle" depart="84.35" departLane="best" from="358010825#5" to="-28451050#3"/>
    <trip id="bike56" type="bike_bicycle" depart="85.88" departLane="best" from="230599319#2" to="-28419881#0"/>
    <trip id="bike57" type="bike_bicycle" depart="87.41" departLane="best" from="361388728#1" to="320819751"/>
    <trip id="bike58" type="bike_bicycle" depart="88.95" departLane="best" from="-315477292#1" to="28419831"/>
    <trip id="bike59" type="bike_bicycle" depart="90.48" departLane="best" from="28413666#13" to="-28413686#4"/>
    <trip id="bike60" type="bike_bicycle" depart="92.01" departLane="best" from="305502408#6" to="26610044#4"/>
    <trip id="bike61" type="bike_bicycle" depart="93.55" departLane="best" from="314269352#14" to="234376524#3"/>
    <trip id="bike62" type="bike_bicycle" depart="95.08" departLane="best" from="-132901844#0" to="-316747952#0"/>
    <trip id="bike63" type="bike_bicycle" depart="96.61" departLane="best" from="-230594200#5" to="447792981#1"/>
    <trip id="bike64" type="bike_bicycle" depart="98.15" departLane="best" from="358038707" to="316747951#1"/>
    <trip id="bike65" type="bike_bicycle" depart="99.68" departLane="best" from="-316170710" to="-230599345#3"/>
    <trip id="bike67" type="bike_bicycle" depart="102.75" departLane="best" from="-28119664#11" to="230599263#5"/>
    <trip id="bike68" type="bike_bicycle" depart="104.28" departLane="best" from="-230599364" to="305502408#4"/>
    <trip id="bike69" type="bike_bicycle" depart="105.81" departLane="best" from="311851897#1" to="-28413646#5"/>
    <trip id="bike70" type="bike_bicycle" depart="107.35" departLane="best" from="230594210" to="28119664#14"/>
    <trip id="bike71" type="bike_bicycle" depart="108.88" departLane="best" from="-28451061#1" to="321934113#5"/>
    <trip id="bike72" type="bike_bicycle" depart="110.42" departLane="best" from="-824755237#1" to="-28420848#5"/>
    <trip id="bike73" type="bike_bicycle" depart="111.95" departLane="best" from="26610044#1" to="28439243#2"/>
    <trip id="bike74" type="bike_bicycle" depart="113.48" departLane="best" from="-28420006#4" to="-316171205#0"/>
    <trip id="bike75" type="bike_bicycle" depart="115.02" departLane="best" from="85572502#1" to="28419899#2"/>
    <trip id="bike76" type="bike_bicycle" depart="116.55" departLane="best" from="-85568167#0" to="230599358#1"/>
    <trip id="bike77" type="bike_bicycle" depart="118.08" departLane="best" from="-28413623#6" to="-28424753#1"/>
    <trip id="bike78" type="bike_bicycle" depart="119.62" departLane="best" from="-319060209#0" to="28413611#2"/>
    <trip id="bike79" type="bike_bicycle" depart="121.15" departLane="best" from="-28424774#3" to="-28422564#1"/>
    <trip id="bike80" type="bike_bicycle" depart="122.68" departLane="best" from="-230599367#1" to="28413725#6"/>
    <trip id="bike81" type="bike_bicycle" depart="124.22" departLane="best" from="-28424753#9" to="360823228#0"/>
    <trip id="bike82" type="bike_bicycle" depart="125.75" departLane="best" from="320524129#1" to="-230599367#0"/>
    <trip id="bike83" type="bike_bicycle" depart="127.28" departLane="best" from="-28424813#5" to="28419989#7"/>
    <trip id="bike84" type="bike_bicycle" depart="128.82" departLane="best" from="-28420852#3" to="-28413659#7"/>
    <trip id="bike85" type="bike_bicycle" depart="130.35" departLane="best" from="727779330#4" to="28275779#7"/>
    <trip id="bike86" type="bike_bicycle" depart="131.89" departLane="best" from="230594204" to="316170010#0"/>
    <trip id="bike87" type="bike_bicycle" depart="133.42" departLane="best" from="316353905#0" to="-28419925#2"/>
    <trip id="bike88" type="bike_bicycle" depart="134.95" departLane="best" from="-28186529#1" to="-826429741"/>
    <trip id="bike89" type="bike_bicycle" depart="136.49" departLane="best" from="-824757925" to="230594197#1"/>
    <trip id="bike90" type="bike_bicycle" depart="138.02" departLane="best" from="28439232#6" to="28420021#2"/>
    <trip id="bike91" type="bike_bicycle" depart="139.55" departLane="best" from="85564965#0" to="-28186538#0"/>
    <trip id="bike92" type="bike_bicycle" depart="141.09" departLane="best" from="-727760806#1" to="-319060209#3"/>
    <trip id="bike93" type="bike_bicycle" depart="142.62" departLane="best" from="320642823" to="-28439150#0"/>
    <trip id="bike94" type="bike_bicycle" depart="144.15" departLane="best" from="-28419925#2" to="168752556#2"/>
    <trip id="bike95" type="bike_bicycle" depart="145.69" departLane="best" from="-824731622" to="-28485643#3"/>
    <trip id="bike96" type="bike_bicycle" depart="147.22" departLane="best" from="-28439197#10" to="396121255#5"/>
    <trip id="bike97" type="bike_bicycle" depart="148.75" departLane="best" from="132901844#1" to="320642824#0"/>
    <trip id="bike98" type="bike_bicycle" depart="150.29" departLane="best" from="28119664#13" to="-230599326#0"/>
    <trip id="bike99" type="bike_bicycle" depart="151.82" departLane="best" from="99770070#0" to="316747955#2"/>
    <trip id="bike100" type="bike_bicycle" depart="153.35" departLane="best" from="826118154#1" to="439625373#1"/>
    <trip id="bike101" type="bike_bicycle" depart="154.89" departLane="best" from="319060207#3" to="-28419825#12"/>
    <trip id="bike102" type="bike_bicycle" depart="156.42" departLane="best" from="230599263#3" to="-28420852#1"/>
    <trip id="bike103" type="bike_bicycle" depart="157.96" departLane="best" from="-469323992" to="-230599347"/>
    <trip id="bike104" type="bike_bicycle" depart="159.49" departLane="best" from="-360316366#1" to="85564965#2"/>
    <trip id="bike105" type="bike_bicycle" depart="161.02" departLane="best" from="-28451061#2" to="315477294"/>
    <trip id="bike106" type="bike_bicycle" depart="162.56" departLane="best" from="193440380#3" to="-824755237#0"/>
    <trip id="bike107" type="bike_bicycle" depart="164.09" departLane="best" from="822197820#0" to="85572502#10"/>
    <trip id="bike108" type="bike_bicycle" depart="165.62" departLane="best" from="28119664#32" to="28439146#0"/>
    <trip id="bike109" type="bike_bicycle" depart="167.16" departLane="best" from="-28413692#0" to="-314269350#1"/>
    <trip id="bike110" type="bike_bicycle" depart="168.69" departLane="best" from="826118152#1" to="28275808#1"/>
    <trip id="bike111" type="bike_bicycle" depart="170.22" departLane="best" from="26610092#2" to="28485621"/>
    <trip id="bike112" type="bike_bicycle" depart="171.76" departLane="best" from="-230599345#0" to="28275818"/>
    <trip id="bike113" type="bike_bicycle" depart="173.29" departLane="best" from="230599327#0" to="319511469#0"/>
    <trip id="bike114" type="bike_bicycle" depart="174.82" departLane="best" from="-28413715#4" to="822247610#1"/>
    <trip id="bike115" type="bike_bicycle" depart="176.36" departLane="best" from="-234376531" to="-28419913#0"/>
    <trip id="bike116" type="bike_bicycle" depart="177.89" departLane="best" from="28413646#1" to="28420103#1"/>
    <trip id="bike117" type="bike_bicycle" depart="179.43" departLane="best" from="-28424798#3" to="-28413623#2"/>
    <trip id="bike118" type="bike_bicycle" depart="180.96" departLane="best" from="360301037" to="-28424942#1"/>
    <trip id="bike119" type="bike_bicycle" depart="182.49" departLane="best" from="28413644#1" to="28413684#4"/>
    <trip id="bike120" type="bike_bicycle" depart="184.03" departLane="best" from="-824731615" to="28275817#9"/>
    <trip id="bike121" type="bike_bicycle" depart="185.56" departLane="best" from="230599367#0" to="727779328#0"/>
    <trip id="bike122" type="bike_bicycle" depart="187.09" departLane="best" from="-28420021#3" to="28424924#2"/>
    <trip id="bike123" type="bike_bicycle" depart="188.63" departLane="best" from="-28424843#1" to="-439625377#1"/>
    <trip id="bike124" type="bike_bicycle" depart="190.16" departLane="best" from="28420006#2" to="-316170010#4"/>
    <trip id="bike125" type="bike_bicycle" depart="191.69" departLane="best" from="-316325902#0" to="28485646#2"/>
    <trip id="bike126" type="bike_bicycle" depart="193.23" departLane="best" from="-230599371" to="227504216#1"/>
    <trip id="bike127" type="bike_bicycle" depart="194.76" departLane="best" from="85572504#0" to="85572502#12"/>
    <trip id="bike128" type="bike_bicycle" depart="196.29" departLane="best" from="-230599372#1" to="-28420848#9"/>
    <trip id="bike129" type="bike_bicycle" depart="197.83" departLane="best" from="-28451061#2" to="469323993#1"/>
    <trip id="bike130" type="bike_bicycle" depart="199.36" departLane="best" from="358321869#0" to="358302725#4"/>
    <trip id="bike131" type="bike_bicycle" depart="200.89" departLane="best" from="-360301039" to="-28413715#5"/>
    <trip id="bike132" type="bike_bicycle" depart="202.43" departLane="best" from="316747951#6" to="28424794#6"/>
    <trip id="bike133" type="bike_bicycle" depart="203.96" departLane="best" from="28413666#9" to="85564975#1"/>
    <trip id="bike134" type="bike_bicycle" depart="205.50" departLane="best" from="28419907#2" to="-193614220#2"/>
    <trip id="bike135" type="bike_bicycle" depart="207.03" departLane="best" from="316622211#1" to="-316170010#2"/>
    <trip id="bike136" type="bike_bicycle" depart="208.56" departLane="best" from="28419931#0" to="727818894"/>
    <trip id="bike137" type="bike_bicycle" depart="210.10" departLane="best" from="-28413665#3" to="-28341080#1"/>
    <trip id="bike138" type="bike_bicycle" depart="211.63" departLane="best" from="-28275779#7" to="28119664#27"/>
    <trip id="bike139" type="bike_bicycle" depart="213.16" departLane="best" from="-28485610#5" to="28413665#6"/>
    <trip id="bike140" type="bike_bicycle" depart="214.70" departLane="best" from="28424924#2" to="-28420021#0"/>
    <trip id="bike141" type="bike_bicycle" depart="216.23" departLane="best" from="28413739#4" to="-28451050#4"/>
    <trip id="bike142" type="bike_bicycle" depart="217.76" departLane="best" from="230599267#2" to="360823228#0"/>
    <trip id="bike143" type="bike_bicycle" depart="219.30" departLane="best" from="319060205#5" to="-28119664#6"/>
    <trip id="bike144" type="bike_bicycle" depart="220.83" departLane="best" from="-824757925" to="-28485621"/>
    <trip id="bike145" type="bike_bicycle" depart="222.36" departLane="best" from="-168752556#3" to="311852704#2"/>
    <trip id="bike146" type="bike_bicycle" depart="223.90" departLane="best" from="28419825#12" to="-28451047#3"/>
    <trip id="bike147" type="bike_bicycle" depart="225.43" departLane="best" from="28451276#3" to="28119664#20"/>
    <trip id="bike148" type="bike_bicycle" depart="226.97" departLane="best" from="-826429722#1" to="-227504216#1"/>
    <trip id="bike149" type="bike_bicycle" depart="228.50" departLane="best" from="-230599375#0" to="358989529#9"/>
    <trip id="bike150" type="bike_bicycle" depart="230.03" departLane="best" from="360318388#0" to="26652692#2"/>
    <trip id="bike151" type="bike_bicycle" depart="231.57" departLane="best" from="316747952#1" to="28275817#4"/>
    <trip id="bike152" type="bike_bicycle" depart="233.10" departLane="best" from="-28413676" to="-28413646#21"/>
    <trip id="bike153" type="bike_bicycle" depart="234.63" departLane="best" from="-316170712#1" to="360316365#2"/>
    <trip id="bike154" type="bike_bicycle" depart="236.17" departLane="best" from="316170714#0" to="320642822#1"/>
    <trip id="bike155" type="bike_bicycle" depart="237.70" departLane="best" from="360316363#1" to="-28420842#6"/>
    <trip id="bike156" type="bike_bicycle" depart="239.23" departLane="best" from="-28439197#1" to="-28275778#2"/>
    <trip id="bike157" type="bike_bicycle" depart="240.77" departLane="best" from="314269352#19" to="360277424"/>
    <trip id="bike158" type="bike_bicycle" depart="242.30" departLane="best" from="-728422514" to="28413684#9"/>
    <trip id="bike159" type="bike_bicycle" depart="243.83" departLane="best" from="-28413689#5" to="447792981#3"/>
    <trip id="bike160" type="bike_bicycle" depart="245.37" departLane="best" from="320649150#1" to="826429726#1"/>
    <trip id="bike161" type="bike_bicycle" depart="246.90" departLane="best" from="316353905#6" to="358989529#10"/>
    <trip id="bike162" type="bike_bicycle" depart="248.43" departLane="best" from="-230594213#0" to="28451061#5"/>
    <trip id="bike163" type="bike_bicycle" depart="249.97" departLane="best" from="-319060202#1" to="447792981#6"/>
    <trip id="bike164" type="bike_bicycle" depart="251.50" departLane="best" from="316324346" to="320649151#0"/>
    <trip id="bike165" type="bike_bicycle" depart="253.04" departLane="best" from="316353905#6" to="-28451061#6"/>
    <trip id="bike166" type="bike_bicycle" depart="254.57" departLane="best" from="316170010#4" to="-28275806#0"/>
    <trip id="bike167" type="bike_bicycle" depart="256.10" departLane="best" from="321934113#2" to="320524129#0"/>
    <trip id="bike169" type="bike_bicycle" depart="259.17" departLane="best" from="227504216#6" to="-316170706#1"/>
    <trip id="bike170" type="bike_bicycle" depart="260.70" departLane="best" from="316170713#0" to="-28424753#4"/>
    <trip id="bike171" type="bike_bicycle" depart="262.24" departLane="best" from="-230594209#1" to="-28419931#2"/>
    <trip id="bike172" type="bike_bicycle" depart="263.77" departLane="best" from="-316747959#1" to="320649151#1"/>
    <trip id="bike173" type="bike_bicycle" depart="265.30" departLane="best" from="826067558" to="-28485643#6"/>
    <trip id="bike174" type="bike_bicycle" depart="266.84" departLane="best" from="28419852#1" to="-447792981#7"/>
    <trip id="bike175" type="bike_bicycle" depart="268.37" departLane="best" from="826429749" to="242786618#1"/>
    <trip id="bike176" type="bike_bicycle" depart="269.90" departLane="best" from="727832194" to="-28341080#0"/>
    <trip id="bike177" type="bike_bicycle" depart="271.44" departLane="best" from="826123412#3" to="-28419868#5"/>
    <trip id="bike178" type="bike_bicycle" depart="272.97" departLane="best" from="824731620#1" to="-28451061#2"/>
    <trip id="bike179" type="bike_bicycle" depart="274.51" departLane="best" from="-28275806#1" to="-826429749"/>
    <trip id="bike180" type="bike_bicycle" depart="276.04" departLane="best" from="28439232#3" to="-316171209"/>
    <trip id="bike181" type="bike_bicycle" depart="277.57" departLane="best" from="28413665#6" to="230599349#4"/>
    <trip id="bike182" type="bike_bicycle" depart="279.11" departLane="best" from="-360828869#0" to="28275807#12"/>
    <trip id="bike183" type="bike_bicycle" depart="280.64" departLane="best" from="-28439217" to="28424847#0"/>
    <trip id="bike184" type="bike_bicycle" depart="282.17" departLane="best" from="-140226538#1" to="439625370#0"/>
    <trip id="bike185" type="bike_bicycle" depart="283.71" departLane="best" departSpeed="max" from="24563872" to="28439150#2"/>
    <trip id="bike186" type="bike_bicycle" depart="285.24" departLane="best" from="28451979#0" to="28420006#3"/>
    <trip id="bike187" type="bike_bicycle" depart="286.77" departLane="best" from="-360279145#0" to="-230599365#1"/>
    <trip id="bike188" type="bike_bicycle" depart="288.31" departLane="best" from="28419931#2" to="-316747963#0"/>
    <trip id="bike189" type="bike_bicycle" depart="289.84" departLane="best" from="-316171210#1" to="319060207#4"/>
    <trip id="bike190" type="bike_bicycle" depart="291.37" departLane="best" from="28439146#0" to="-316170010#5"/>
    <trip id="bike191" type="bike_bicycle" depart="292.91" departLane="best" from="-316170714#0" to="-728422518#1"/>
    <trip id="bike192" type="bike_bicycle" depart="294.44" departLane="best" from="-727760806#1" to="-314269347"/>
    <trip id="bike193" type="bike_bicycle" depart="295.97" departLane="best" from="-28413646#21" to="-824731617#2"/>
    <trip id="bike194" type="bike_bicycle" depart="297.51" departLane="best" from="728048246#0" to="28420826#2"/>
    <trip id="bike195" type="bike_bicycle" depart="299.04" departLane="best" from="360318384#2" to="28413672#0"/>
    <trip id="bike196" type="bike_bicycle" depart="300.58" departLane="best" from="-316170703#0" to="26654018#5"/>
    <trip id="bike197" type="bike_bicycle" depart="302.11" departLane="best" from="-132901844#0" to="-299483421#2"/>
    <trip id="bike198" type="bike_bicycle" depart="303.64" departLane="best" from="-826429738" to="28275810#1"/>
    <trip id="bike199" type="bike_bicycle" depart="305.18" departLane="best" from="28419908#0" to="230578274#1"/>
    <trip id="bike200" type="bike_bicycle" depart="306.71" departLane="best" from="-99778737" to="-28420852#1"/>
    <trip id="bike201" type="bike_bicycle" depart="308.24" departLane="best" from="230594205" to="360318377"/>
    <trip id="bike202" type="bike_bicycle" depart="309.78" departLane="best" from="316170714#0" to="-28419834"/>
    <trip id="bike203" type="bike_bicycle" depart="311.31" departLane="best" from="-28119664#0" to="230599356#1"/>
    <trip id="bike204" type="bike_bicycle" depart="312.84" departLane="best" from="28413739#0" to="-319060205#4"/>
    <trip id="bike205" type="bike_bicycle" depart="314.38" departLane="best" from="316622212#3" to="28485646#0"/>
    <trip id="bike206" type="bike_bicycle" depart="315.91" departLane="best" from="28420006#6" to="-28424753#1"/>
    <trip id="bike207" type="bike_bicycle" depart="317.44" departLane="best" from="-28419989#7" to="-230594212"/>
    <trip id="bike208" type="bike_bicycle" depart="318.98" departLane="best" from="-28424924#0" to="230594211"/>
    <trip id="bike209" type="bike_bicycle" depart="320.51" departLane="best" from="319060208#0" to="-230599371"/>
    <trip id="bike210" type="bike_bicycle" depart="322.05" departLane="best" from="-729085243#7" to="28413725#2"/>
    <trip id="bike211" type="bike_bicycle" depart="323.58" departLane="best" from="-28419947#0" to="28424753#2"/>
    <trip id="bike212" type="bike_bicycle" depart="325.11" departLane="best" from="230599282#0" to="-28424919#0"/>
    <trip id="bike213" type="bike_bicycle" depart="326.65" departLane="best" from="28419908#5" to="-193440376#0"/>
    <trip id="bike214" type="bike_bicycle" depart="328.18" departLane="best" from="28485643#2" to="311852703#1"/>
    <trip id="bike215" type="bike_bicycle" depart="329.71" departLane="best" from="-28275779#4" to="-826067557#1"/>
    <trip id="bike216" type="bike_bicycle" depart="331.25" departLane="best" from="-28419858#2" to="822185889#1"/>
    <trip id="bike217" type="bike_bicycle" depart="332.78" departLane="best" from="230599358#1" to="-230599325#1"/>
    <trip id="bike218" type="bike_bicycle" depart="334.31" departLane="best" from="-28439197#0" to="319060207#5"/>
    <trip id="bike219" type="bike_bicycle" depart="335.85" departLane="best" from="193614220#0" to="316324619"/>
    <trip id="bike220" type="bike_bicycle" depart="337.38" departLane="best" from="28419970#1" to="85564975#3"/>
    <trip id="bike221" type="bike_bicycle" depart="338.91" departLane="best" from="28413646#10" to="728422519#2"/>
    <trip id="bike222" type="bike_bicycle" depart="340.45" departLane="best" from="360301040" to="28413668#15"/>
    <trip id="bike223" type="bike_bicycle" depart="341.98" departLane="best" from="28438826#1" to="230599331#0"/>
    <trip id="bike224" type="bike_bicycle" depart="343.51" departLane="best" from="316747948" to="26654018#5"/>
    <trip id="bike225" type="bike_bicycle" depart="345.05" departLane="best" from="360316354" to="28485610#4"/>
    <trip id="bike226" type="bike_bicycle" depart="346.58" departLane="best" from="230594209#0" to="-28439243#0"/>
    <trip id="bike227" type="bike_bicycle" depart="348.12" departLane="best" from="-28438826#2" to="28419825#6"/>
    <trip id="bike228" type="bike_bicycle" depart="349.65" departLane="best" from="311851897#1" to="230599365#0"/>
    <trip id="bike229" type="bike_bicycle" depart="351.18" departLane="best" from="28413692#2" to="-28485611#5"/>
    <trip id="bike230" type="bike_bicycle" depart="352.72" departLane="best" from="-234376524#2" to="-299483420#7"/>
    <trip id="bike231" type="bike_bicycle" depart="354.25" departLane="best" from="-28485610#2" to="-316622214#0"/>
    <trip id="bike232" type="bike_bicycle" depart="355.78" departLane="best" from="26610044#3" to="-28413666#2"/>
    <trip id="bike233" type="bike_bicycle" depart="357.32" departLane="best" from="-28424774#6" to="28424753#0"/>
    <trip id="bike234" type="bike_bicycle" depart="358.85" departLane="best" from="28424798#3" to="-230599357#1"/>
    <trip id="bike235" type="bike_bicycle" depart="360.38" departLane="best" from="-728422517" to="26610093#2"/>
    <trip id="bike236" type="bike_bicycle" depart="361.92" departLane="best" from="-822185889#2" to="-28420103#5"/>
    <trip id="bike237" type="bike_bicycle" depart="363.45" departLane="best" from="-824731617#2" to="360318388#5"/>
    <trip id="bike238" type="bike_bicycle" depart="364.98" departLane="best" from="28275817#4" to="28424753#13"/>
    <trip id="bike239" type="bike_bicycle" depart="366.52" departLane="best" from="319512093#4" to="311851899#3"/>
    <trip id="bike240" type="bike_bicycle" depart="368.05" departLane="best" from="-360318377" to="-193440376#1"/>
    <trip id="bike241" type="bike_bicycle" depart="369.59" departLane="best" from="-320649155#1" to="28496211#4"/>
    <trip id="bike242" type="bike_bicycle" depart="371.12" departLane="best" from="319511469#0" to="729085241"/>
    <trip id="bike243" type="bike_bicycle" depart="372.65" departLane="best" from="-824731614" to="28485618#1"/>
    <trip id="bike244" type="bike_bicycle" depart="374.19" departLane="best" from="26652692#0" to="28413665#10"/>
    <trip id="bike245" type="bike_bicycle" depart="375.72" departLane="best" from="-28422564#2" to="-28420945#7"/>
    <trip id="bike246" type="bike_bicycle" depart="377.25" departLane="best" from="-85564965#0" to="-230599253"/>
    <trip id="bike247" type="bike_bicycle" depart="378.79" departLane="best" from="-319060206#0" to="28420842#6"/>
    <trip id="bike248" type="bike_bicycle" depart="380.32" departLane="best" from="-727840610" to="-28419825#0"/>
    <trip id="bike249" type="bike_bicycle" depart="381.85" departLane="best" from="230594197#1" to="-28413646#3"/>
    <trip id="bike250" type="bike_bicycle" depart="383.39" departLane="best" from="28413684#9" to="-230594215#0"/>
    <trip id="bike251" type="bike_bicycle" depart="384.92" departLane="best" from="-439625373#1" to="28186550#2"/>
    <trip id="bike252" type="bike_bicycle" depart="386.45" departLane="best" from="-230594215#0" to="28419852#5"/>
    <trip id="bike253" type="bike_bicycle" depart="387.99" departLane="best" from="-28413665#8" to="22837906#4"/>
    <trip id="bike254" type="bike_bicycle" depart="389.52" departLane="best" from="-230599325#1" to="-360316366#0"/>
    <trip id="bike255" type="bike_bicycle" depart="391.05" departLane="best" from="-28420848#5" to="-316747955#2"/>