<?xml version="1.0" encoding="UTF-8"?>
<!-- generated on 2020-11-05 09:24:54.375840 by osmWebWizard.py v1_7_0+0000-714814baed
  options: 
-->
<routes xmlns:xsi="http://www.w3.org/2001/XMLSchema-instance" xsi:noNamespaceSchemaLocation="http://sumo.dlr.de/xsd/routes_file.xsd">
    <vType id="ped_pedestrian" vClass="pedestrian"/>
    <person id="ped0" depart="0.00" type="ped_pedestrian">
        <walk from="28419825#4" to="-230594213#0"/>
    </person>
    <person id="ped1" depart="0.94" type="ped_pedestrian">
        <walk from="28451050#4" to="28420045#1"/>
    </person>
    <person id="ped2" depart="1.87" type="ped_pedestrian">
        <walk from="360301035" to="-28119664#15"/>
    </person>
    <person id="ped3" depart="2.81" type="ped_pedestrian">
        <walk from="-824731619#2" to="-230599255#0"/>
    </person>
    <person id="ped4" depart="3.75" type="ped_pedestrian">
        <walk from="-28420945#1" to="230599329#1"/>
    </person>
    <person id="ped5" depart="4.69" type="ped_pedestrian">
        <walk from="-230594214#1" to="-28419989#3"/>
    </person>
    <person id="ped6" depart="5.62" type="ped_pedestrian">
        <walk from="28419868#4" to="26652690#0"/>
    </person>
    <person id="ped7" depart="6.56" type="ped_pedestrian">
        <walk from="-28420945#9" to="28413610#0"/>
    </person>
    <person id="ped8" depart="7.50" type="ped_pedestrian">
        <walk from="316353905#1" to="-193440381#1"/>
    </person>
    <person id="ped9" depart="8.44" type="ped_pedestrian">
        <walk from="316325903#2" to="28424753#13"/>
    </person>
    <person id="ped10" depart="9.37" type="ped_pedestrian">
        <walk from="-319060209#3" to="-28413692#0"/>
    </person>
    <person id="ped11" depart="10.31" type="ped_pedestrian">
        <walk from="822185889#1" to="-319060205#5"/>
    </person>
    <person id="ped12" depart="11.25" type="ped_pedestrian">
        <walk from="319060205#2" to="28413659#6"/>
    </person>
    <person id="ped13" depart="12.19" type="ped_pedestrian">
        <walk from="316325905" to="28439232#3"/>
    </person>
    <person id="ped14" depart="13.12" type="ped_pedestrian">
        <walk from="316747153" to="28413675#0"/>
    </person>
    <person id="ped15" depart="14.06" type="ped_pedestrian">
        <walk from="320524130#1" to="28275807#0"/>
    </person>
    <person id="ped16" depart="15.00" type="ped_pedestrian">
        <walk from="28424794#1" to="-230599301#0"/>
    </person>
    <person id="ped17" depart="15.94" type="ped_pedestrian">
        <walk from="-28424753#3" to="-311851894#1"/>
    </person>
    <person id="ped18" depart="16.87" type="ped_pedestrian">
        <walk from="-234376529#0" to="-28424779#1"/>
    </person>
    <person id="ped19" depart="17.81" type="ped_pedestrian">
        <walk from="-28186550#1" to="-28485631#0"/>
    </person>
    <person id="ped20" depart="18.75" type="ped_pedestrian">
        <walk from="28413739#6" to="-360122666"/>
    </person>
    <person id="ped21" depart="19.69" type="ped_pedestrian">
        <walk from="-360301035" to="-28420842#2"/>
    </person>
    <person id="ped22" depart="20.62" type="ped_pedestrian">
        <walk from="-28451061#4" to="727779331#1"/>
    </person>
    <person id="ped23" depart="21.56" type="ped_pedestrian">
        <walk from="28419864#0" to="28413666#11"/>
    </person>
    <person id="ped24" depart="22.50" type="ped_pedestrian">
        <walk from="-28419852#1" to="28439232#1"/>
    </person>
    <person id="ped25" depart="23.44" type="ped_pedestrian">
        <walk from="85568167#3" to="28419825#6"/>
    </person>
    <person id="ped26" depart="24.37" type="ped_pedestrian">
        <walk from="28119664#4" to="28420848#7"/>
    </person>
    <person id="ped27" depart="25.31" type="ped_pedestrian">
        <walk from="-28424753#6" to="-230599258#1"/>
    </person>
    <person id="ped28" depart="26.25" type="ped_pedestrian">
        <walk from="-316171210#3" to="-28451181#0"/>
    </person>
    <person id="ped29" depart="27.19" type="ped_pedestrian">
        <walk from="-28420848#0" to="728065452"/>
    </person>
    <person id="ped30" depart="28.12" type="ped_pedestrian">
        <walk from="357021876" to="-316171209"/>
    </person>
    <person id="ped31" depart="29.06" type="ped_pedestrian">
        <walk from="28419907#3" to="-439625374#0"/>
    </person>
    <person id="ped32" depart="30.00" type="ped_pedestrian">
        <walk from="-28451050#5" to="-28424942#0"/>
    </person>
    <person id="ped33" depart="30.94" type="ped_pedestrian">
        <walk from="28275817#4" to="360316347#1"/>
    </person>
    <person id="ped34" depart="31.87" type="ped_pedestrian">
        <walk from="-447792981#4" to="-28420945#3"/>
    </person>
    <person id="ped35" depart="32.81" type="ped_pedestrian">
        <walk from="-28119664#29" to="-230599308"/>
    </person>
    <person id="ped36" depart="33.75" type="ped_pedestrian">
        <walk from="-28275806#4" to="28413692#2"/>
    </person>
    <person id="ped37" depart="34.69" type="ped_pedestrian">
        <walk from="316170704#2" to="-824731620#0"/>
    </person>
    <person id="ped38" depart="35.62" type="ped_pedestrian">
        <walk from="85572502#12" to="234376519#0"/>
    </person>
    <person id="ped39" depart="36.56" type="ped_pedestrian">
        <walk from="826123412#4" to="319885601"/>
    </person>
    <person id="ped40" depart="37.50" type="ped_pedestrian">
        <walk from="-227504216#7" to="28438826#3"/>
    </person>
    <person id="ped41" depart="38.44" type="ped_pedestrian">
        <walk from="28420842#6" to="235210803#2"/>
    </person>
    <person id="ped42" depart="39.37" type="ped_pedestrian">
        <walk from="-28451061#4" to="28419825#9"/>
    </person>
    <person id="ped43" depart="40.31" type="ped_pedestrian">
        <walk from="-28275810#1" to="-826429747"/>
    </person>
    <person id="ped44" depart="41.25" type="ped_pedestrian">
        <walk from="357021875" to="-28451047#6"/>
    </person>
    <person id="ped45" depart="42.19" type="ped_pedestrian">
        <walk from="230599317#1" to="-28419868#4"/>
    </person>
    <person id="ped46" depart="43.12" type="ped_pedestrian">
        <walk from="361378171" to="320649155#0"/>
    </person>
    <person id="ped47" depart="44.06" type="ped_pedestrian">
        <walk from="-315415082#0" to="28419825#3"/>
    </person>
    <person id="ped48" depart="45.00" type="ped_pedestrian">
        <walk from="28413666#10" to="-28413686#3"/>
    </person>
    <person id="ped49" depart="45.94" type="ped_pedestrian">
        <walk from="305502408#1" to="26610012#0"/>
    </person>
    <person id="ped50" depart="46.87" type="ped_pedestrian">
        <walk from="314269352#11" to="234376521#3"/>
    </person>
    <person id="ped51" depart="47.81" type="ped_pedestrian">
        <walk from="-230594200#5" to="447792981#4"/>
    </person>
    <person id="ped52" depart="48.75" type="ped_pedestrian">
        <walk from="358036179#0" to="316747673"/>
    </person>
    <person id="ped53" depart="49.69" type="ped_pedestrian">
        <walk from="-316170707#1" to="-230599345#2"/>
    </person>
    <person id="ped54" depart="50.62" type="ped_pedestrian">
        <walk from="358036178#0" to="728422515"/>
    </person>
    <person id="ped55" depart="51.56" type="ped_pedestrian">
        <walk from="-28119664#1" to="230599263#1"/>
    </person>
    <person id="ped56" depart="52.50" type="ped_pedestrian">
        <walk from="-230599363#3" to="305502018"/>
    </person>
    <person id="ped57" depart="53.43" type="ped_pedestrian">
        <walk from="311851894#1" to="-28413646#4"/>
    </person>
    <person id="ped58" depart="54.37" type="ped_pedestrian">
        <walk from="-28451050#5" to="320649155#6"/>
    </person>
    <person id="ped59" depart="55.31" type="ped_pedestrian">
        <walk from="-824731624#1" to="-28420848#2"/>
    </person>
    <person id="ped60" depart="56.25" type="ped_pedestrian">
        <walk from="24563872" to="28439232#5"/>
    </person>
    <person id="ped61" depart="57.18" type="ped_pedestrian">
        <walk from="-28420006#2" to="-316171201#2"/>
    </person>
    <person id="ped62" depart="58.12" type="ped_pedestrian">
        <walk from="-319060206#2" to="28341080#5"/>
    </person>
    <person id="ped63" depart="59.06" type="ped_pedestrian">
        <walk from="-28424774#0" to="-28420945#7"/>
    </person>
    <person id="ped64" depart="60.00" type="ped_pedestrian">
        <walk from="-230599367#0" to="28413723#4"/>
    </person>
    <person id="ped65" depart="60.93" type="ped_pedestrian">
        <walk from="-28424753#6" to="360318384#3"/>
    </person>
    <person id="ped66" depart="61.87" type="ped_pedestrian">
        <walk from="-28424813#2" to="28419989#0"/>
    </person>
    <person id="ped67" depart="62.81" type="ped_pedestrian">
        <walk from="-28420852#0" to="-28413659#5"/>
    </person>
    <person id="ped68" depart="63.75" type="ped_pedestrian">
        <walk from="727779330#4" to="28275778#9"/>
    </person>
    <person id="ped69" depart="64.68" type="ped_pedestrian">
        <walk from="230594201" to="315415082#0"/>
    </person>
    <person id="ped70" depart="65.62" type="ped_pedestrian">
        <walk from="316333787#0" to="-28419925#0"/>
    </person>
    <person id="ped71" depart="66.56" type="ped_pedestrian">
        <walk from="-28186527#2" to="-826429738"/>
    </person>
    <person id="ped72" depart="67.50" type="ped_pedestrian">
        <walk from="-824755236" to="230578275"/>
    </person>
    <person id="ped73" depart="68.43" type="ped_pedestrian">
        <walk from="28439232#1" to="28420006#5"/>
    </person>
    <person id="ped74" depart="69.37" type="ped_pedestrian">
        <walk from="8285902#1" to="-28186529#4"/>
    </person>
    <person id="ped75" depart="70.31" type="ped_pedestrian">
        <walk from="-469323993#2" to="-319060209#0"/>
    </person>
    <person id="ped76" depart="71.25" type="ped_pedestrian">
        <walk from="320524130#1" to="-28439146#0"/>
    </person>
    <person id="ped77" depart="72.18" type="ped_pedestrian">
        <walk from="-28419925#0" to="155750883#2"/>
    </person>
    <person id="ped78" depart="73.12" type="ped_pedestrian">
        <walk from="-824731619#2" to="-28485643#0"/>
    </person>
    <person id="ped79" depart="74.06" type="ped_pedestrian">
        <walk from="-28439150#2" to="396121255#7"/>
    </person>
    <person id="ped80" depart="75.00" type="ped_pedestrian">
        <walk from="-99778737" to="320524129#1"/>
    </person>
    <person id="ped81" depart="75.93" type="ped_pedestrian">
        <walk from="28119664#1" to="-230599326#0"/>
    </person>
    <person id="ped82" depart="76.87" type="ped_pedestrian">
        <walk from="99770070#0" to="316747952#0"/>
    </person>
    <person id="ped83" depart="77.81" type="ped_pedestrian">
        <walk from="826118154#1" to="439625377#1"/>
    </person>
    <person id="ped84" depart="78.75" type="ped_pedestrian">
        <walk from="319060205#7" to="-28419825#11"/>
    </person>
    <person id="ped85" depart="79.68" type="ped_pedestrian">
        <walk from="230599263#0" to="-28420848#9"/>
    </person>
    <person id="ped86" depart="80.62" type="ped_pedestrian">
        <walk from="-469323991#0" to="-230599345#4"/>
    </person>
    <person id="ped87" depart="81.56" type="ped_pedestrian">
        <walk from="-360316363#1" to="85564965#3"/>
    </person>
    <person id="ped88" depart="82.50" type="ped_pedestrian">
        <walk from="-28451050#6" to="314269352#9"/>
    </person>
    <person id="ped89" depart="83.43" type="ped_pedestrian">
        <walk from="193440380#1" to="-824731624#1"/>
    </person>
    <person id="ped90" depart="84.37" type="ped_pedestrian">
        <walk from="28119664#30" to="28424924#1"/>
    </person>
    <person id="ped91" depart="85.31" type="ped_pedestrian">
        <walk from="-28413689#4" to="-314269347"/>
    </person>
    <person id="ped92" depart="86.25" type="ped_pedestrian">
        <walk from="826118152#1" to="28275807#2"/>
    </person>
    <person id="ped93" depart="87.18" type="ped_pedestrian">
        <walk from="26610044#7" to="28485611#3"/>
    </person>
    <person id="ped94" depart="88.12" type="ped_pedestrian">
        <walk from="-230599345#0" to="28275817#2"/>
    </person>
    <person id="ped95" depart="89.06" type="ped_pedestrian">
        <walk from="230599325#1" to="319060209#0"/>
    </person>
    <person id="ped96" depart="90.00" type="ped_pedestrian">
        <walk from="-28413715#2" to="824731615"/>
    </person>
    <person id="ped97" depart="90.93" type="ped_pedestrian">
        <walk from="-234376529#1" to="-28419908#6"/>
    </person>
    <person id="ped98" depart="91.87" type="ped_pedestrian">
        <walk from="28413644#1" to="28420016#3"/>
    </person>
    <person id="ped99" depart="92.81" type="ped_pedestrian">
        <walk from="-28424798#0" to="-28413623#1"/>
    </person>
    <person id="ped100" depart="93.75" type="ped_pedestrian">
        <walk from="360301029" to="-28424924#1"/>
    </person>
    <person id="ped101" depart="94.68" type="ped_pedestrian">
        <walk from="28413643#1" to="28413675#2"/>
    </person>
    <person id="ped102" depart="95.62" type="ped_pedestrian">
        <walk from="-822247610#1" to="28275817#1"/>
    </person>
    <person id="ped103" depart="96.56" type="ped_pedestrian">
        <walk from="230599365#1" to="727779330#0"/>
    </person>
    <person id="ped104" depart="97.50" type="ped_pedestrian">
        <walk from="-28420021#0" to="28424910#4"/>
    </person>
    <person id="ped105" depart="98.43" type="ped_pedestrian">
        <walk from="-28424813#4" to="-439625374#1"/>
    </person>
    <person id="ped106" depart="99.37" type="ped_pedestrian">
        <walk from="28419989#8" to="-316170010#1"/>
    </person>
    <person id="ped107" depart="100.31" type="ped_pedestrian">
        <walk from="-316171211#0" to="28485643#1"/>
    </person>
    <person id="ped108" depart="101.25" type="ped_pedestrian">
        <walk from="-230599369#1" to="193614220#3"/>
    </person>
    <person id="ped109" depart="102.18" type="ped_pedestrian">
        <walk from="85572504#0" to="85572502#12"/>
    </person>
    <person id="ped110" depart="103.12" type="ped_pedestrian">
        <walk from="-230599372#0" to="-28420848#7"/>
    </person>
    <person id="ped111" depart="104.06" type="ped_pedestrian">
        <walk from="-28451050#6" to="727760806#1"/>
    </person>
    <person id="ped112" depart="104.99" type="ped_pedestrian">
        <walk from="358038707" to="358036180"/>
    </person>
    <person id="ped113" depart="105.93" type="ped_pedestrian">
        <walk from="-360301033" to="-28413715#3"/>
    </person>
    <person id="ped114" depart="106.87" type="ped_pedestrian">
        <walk from="316747951#0" to="28424779#0"/>
    </person>
    <person id="ped115" depart="107.81" type="ped_pedestrian">
        <walk from="28413666#7" to="85564975#1"/>
    </person>
    <person id="ped116" depart="108.74" type="ped_pedestrian">
        <walk from="28419899#9" to="-193614220#1"/>
    </person>
    <person id="ped117" depart="109.68" type="ped_pedestrian">
        <walk from="316524162#3" to="-315477292#1"/>
    </person>
    <person id="ped118" depart="110.62" type="ped_pedestrian">
        <walk from="-28413665#10" to="-28275817#9"/>
    </person>
    <person id="ped119" depart="111.56" type="ped_pedestrian">
        <walk from="-28275779#6" to="28119664#20"/>
    </person>
    <person id="ped120" depart="112.49" type="ped_pedestrian">
        <walk from="28424919#2" to="-28420016#2"/>
    </person>
    <person id="ped121" depart="113.43" type="ped_pedestrian">
        <walk from="28413739#10" to="-28451050#2"/>
    </person>
    <person id="ped122" depart="114.37" type="ped_pedestrian">
        <walk from="319060203#2" to="-28119664#5"/>
    </person>
    <person id="ped123" depart="115.31" type="ped_pedestrian">
        <walk from="-824755236" to="-28485613"/>
    </person>
    <person id="ped124" depart="116.24" type="ped_pedestrian">
        <walk from="-168752556#3" to="311852701#0"/>
    </person>
    <person id="ped125" depart="117.18" type="ped_pedestrian">
        <walk from="28419825#1" to="-28451047#0"/>
    </person>
    <person id="ped126" depart="118.12" type="ped_pedestrian">
        <walk from="28451253#3" to="28119664#15"/>
    </person>
    <person id="ped127" depart="119.06" type="ped_pedestrian">
        <walk from="-230599374#1" to="358321869#1"/>
    </person>
    <person id="ped128" depart="119.99" type="ped_pedestrian">
        <walk from="360318375" to="26652690#2"/>
    </person>
    <person id="ped129" depart="120.93" type="ped_pedestrian">
        <walk from="316747951#2" to="28275810#2"/>
    </person>
    <person id="ped130" depart="121.87" type="ped_pedestrian">
        <walk from="-28413675#2" to="-28413646#20"/>
    </person>
    <person id="ped131" depart="122.81" type="ped_pedestrian">
        <walk from="-316170709" to="360316352"/>
    </person>
    <person id="ped132" depart="123.74" type="ped_pedestrian">
        <walk from="316170712#0" to="319885601"/>
    </person>
    <person id="ped133" depart="124.68" type="ped_pedestrian">
        <walk from="-28439150#1" to="-28275778#10"/>
    </person>
    <person id="ped134" depart="125.62" type="ped_pedestrian">
        <walk from="314269352#16" to="358989529#10"/>
    </person>
    <person id="ped135" depart="126.56" type="ped_pedestrian">
        <walk from="-728119351#1" to="28413684#11"/>
    </person>
    <person id="ped136" depart="127.49" type="ped_pedestrian">
        <walk from="-28413689#3" to="447792981#6"/>
    </person>
    <person id="ped137" depart="128.43" type="ped_pedestrian">
        <walk from="320642824#2" to="826429729"/>
    </person>
    <person id="ped138" depart="129.37" type="ped_pedestrian">
        <walk from="316353905#13" to="358302725#1"/>
    </person>
    <person id="ped139" depart="130.31" type="ped_pedestrian">
        <walk from="-230594212" to="28451050#4"/>
    </person>
    <person id="ped140" depart="131.24" type="ped_pedestrian">
        <walk from="316171210#4" to="320642824#0"/>
    </person>
    <person id="ped141" depart="132.18" type="ped_pedestrian">
        <walk from="316353905#13" to="-28451061#4"/>
    </person>
    <person id="ped142" depart="133.12" type="ped_pedestrian">
        <walk from="316170010#0" to="-28275780"/>
    </person>
    <person id="ped143" depart="134.06" type="ped_pedestrian">
        <walk from="320649155#5" to="319512093#4"/>
    </person>
    <person id="ped144" depart="134.99" type="ped_pedestrian">
        <walk from="-28424606#1" to="316524162#1"/>
    </person>
    <person id="ped145" depart="135.93" type="ped_pedestrian">
        <walk from="227504216#3" to="-316170704#3"/>
    </person>
    <person id="ped146" depart="136.87" type="ped_pedestrian">
        <walk from="316170709" to="-28424753#2"/>
    </person>
    <person id="ped147" depart="137.81" type="ped_pedestrian">
        <walk from="-230594209#1" to="-28419931#0"/>
    </person>
    <person id="ped148" depart="138.74" type="ped_pedestrian">
        <walk from="-316747956" to="320642824#1"/>
    </person>
    <person id="ped149" depart="139.68" type="ped_pedestrian">
        <walk from="826067557#0" to="-28485643#2"/>
    </person>
    <person id="ped150" depart="140.62" type="ped_pedestrian">
        <walk from="28419834" to="-447792981#5"/>
    </person>
    <person id="ped151" depart="141.56" type="ped_pedestrian">
        <walk from="826429748" to="234376533#2"/>
    </person>
    <person id="ped152" depart="142.49" type="ped_pedestrian">
        <walk from="826123412#2" to="-28419868#4"/>
    </person>
    <person id="ped153" depart="143.43" type="ped_pedestrian">
        <walk from="824731619#2" to="-28451050#7"/>
    </person>
    <person id="ped154" depart="144.37" type="ped_pedestrian">
        <walk from="-28275806#0" to="-826429746#1"/>
    </person>
    <person id="ped155" depart="145.31" type="ped_pedestrian">
        <walk from="28439226" to="-316171207#0"/>
    </person>
    <person id="ped156" depart="146.24" type="ped_pedestrian">
        <walk from="28413665#3" to="230599347"/>
    </person>
    <person id="ped157" depart="147.18" type="ped_pedestrian">
        <walk from="-360823228#0" to="28275806#7"/>
    </person>
    <person id="ped158" depart="148.12" type="ped_pedestrian">
        <walk from="-28439212#3" to="28424813#0"/>
    </person>
    <person id="ped159" depart="149.06" type="ped_pedestrian">
        <walk from="-140226538#1" to="439625373#1"/>
    </person>
    <person id="ped160" depart="149.99" type="ped_pedestrian">
        <walk from="242786618#4" to="28424942#1"/>
    </person>
    <person id="ped161" depart="150.93" type="ped_pedestrian">
        <walk from="28451276#0" to="28419989#5"/>
    </person>
    <person id="ped162" depart="151.87" type="ped_pedestrian">
        <walk from="-358321869#0" to="-230599365#1"/>
    </person>
    <person id="ped163" depart="152.81" type="ped_pedestrian">
        <walk from="-316171207#1" to="319060205#5"/>
    </person>
    <person id="ped164" depart="153.74" type="ped_pedestrian">
        <walk from="28424953#0" to="-316170010#2"/>
    </person>
    <person id="ped165" depart="154.68" type="ped_pedestrian">
        <walk from="-316170712#0" to="-728422517"/>
    </person>
    <person id="ped166" depart="155.62" type="ped_pedestrian">
        <walk from="-469323993#1" to="-311852702#1"/>
    </person>
    <person id="ped167" depart="156.55" type="ped_pedestrian">
        <walk from="-28413646#2" to="-824731615"/>
    </person>
    <person id="ped168" depart="157.49" type="ped_pedestrian">
        <walk from="728048245" to="28420103#0"/>
    </person>
    <person id="ped169" depart="158.43" type="ped_pedestrian">
        <walk from="-316170010#4" to="26654018#0"/>
    </person>
    <person id="ped170" depart="159.37" type="ped_pedestrian">
        <walk from="-132901844#0" to="-299483420#8"/>
    </person>
    <person id="ped171" depart="160.30" type="ped_pedestrian">
        <walk from="-826429726#0" to="28275807#6"/>
    </person>
    <person id="ped172" depart="161.24" type="ped_pedestrian">
        <walk from="28419907#1" to="230578272"/>
    </person>
    <person id="ped173" depart="162.18" type="ped_pedestrian">
        <walk from="-85572498" to="-28420848#9"/>
    </person>
    <person id="ped174" depart="163.12" type="ped_pedestrian">
        <walk from="316170711" to="-28419825#9"/>
    </person>
    <person id="ped175" depart="164.05" type="ped_pedestrian">
        <walk from="-26610093#2" to="230599352#2"/>
    </person>
    <person id="ped176" depart="164.99" type="ped_pedestrian">
        <walk from="28413725#5" to="-319060205#0"/>
    </person>
    <person id="ped177" depart="165.93" type="ped_pedestrian">
        <walk from="28420006#3" to="-28424730#3"/>
    </person>
    <person id="ped178" depart="166.87" type="ped_pedestrian">
        <walk from="-28419989#4" to="-230594211"/>
    </person>
    <person id="ped179" depart="167.80" type="ped_pedestrian">
        <walk from="-28424919#0" to="230594207"/>
    </person>
    <person id="ped180" depart="168.74" type="ped_pedestrian">
        <walk from="319060207#1" to="-230599371"/>
    </person>
    <person id="ped181" depart="169.68" type="ped_pedestrian">
        <walk from="-28419931#4" to="28424753#0"/>
    </person>
    <person id="ped182" depart="170.62" type="ped_pedestrian">
        <walk from="230599280#0" to="-28424910#4"/>
    </person>
    <person id="ped183" depart="171.55" type="ped_pedestrian">
        <walk from="28419908#1" to="-193440376#0"/>
    </person>
    <person id="ped184" depart="172.49" type="ped_pedestrian">
        <walk from="28485631#0" to="311851901#0"/>
    </person>
    <person id="ped185" depart="173.43" type="ped_pedestrian">
        <walk from="-28419858#0" to="822197820#1"/>
    </person>
    <person id="ped186" depart="174.37" type="ped_pedestrian">
        <walk from="230599357#3" to="-230599325#1"/>
    </person>
    <person id="ped187" depart="175.30" type="ped_pedestrian">
        <walk from="-28439150#0" to="319060205#6"/>
    </person>
    <person id="ped188" depart="176.24" type="ped_pedestrian">
        <walk from="193440381#1" to="316171210#1"/>
    </person>
    <person id="ped189" depart="177.18" type="ped_pedestrian">
        <walk from="28419947#4" to="85564975#3"/>
    </person>
    <person id="ped190" depart="178.12" type="ped_pedestrian">
        <walk from="28413646#0" to="728422520#1"/>
    </person>
    <person id="ped191" depart="179.05" type="ped_pedestrian">
        <walk from="360301032" to="28413668#0"/>
    </person>
    <person id="ped192" depart="179.99" type="ped_pedestrian">
        <walk from="28424942#1" to="230599328"/>
    </person>
    <person id="ped193" depart="180.93" type="ped_pedestrian">
        <walk from="316747154#3" to="26654018#0"/>
    </person>
    <person id="ped194" depart="181.87" type="ped_pedestrian">
        <walk from="360316344#1" to="28451979#2"/>
    </person>
    <person id="ped195" depart="182.80" type="ped_pedestrian">
        <walk from="230594206#1" to="-28439239#1"/>
    </person>
    <person id="ped196" depart="183.74" type="ped_pedestrian">
        <walk from="311851894#1" to="230599363#1"/>
    </person>
    <person id="ped197" depart="184.68" type="ped_pedestrian">
        <walk from="-234376524#1" to="-299483420#3"/>
    </person>
    <person id="ped198" depart="185.62" type="ped_pedestrian">
        <walk from="-28485604#1" to="-316333787#4"/>
    </person>
    <person id="ped199" depart="186.55" type="ped_pedestrian">
        <walk from="26610044#1" to="-28413666#12"/>
    </person>
    <person id="ped200" depart="187.49" type="ped_pedestrian">
        <walk from="28424798#0" to="-230599357#0"/>
    </person>
    <person id="ped201" depart="188.43" type="ped_pedestrian">
        <walk from="-728422515" to="26610092#1"/>
    </person>
    <person id="ped202" depart="189.37" type="ped_pedestrian">
        <walk from="-822185888#1" to="-28420103#3"/>
    </person>
    <person id="ped203" depart="190.30" type="ped_pedestrian">
        <walk from="28275817#2" to="28424730#2"/>
    </person>
    <person id="ped204" depart="191.24" type="ped_pedestrian">
        <walk from="319512077" to="305502411#1"/>
    </person>
    <person id="ped205" depart="192.18" type="ped_pedestrian">
        <walk from="-360316366#1" to="-193440376#1"/>
    </person>
    <person id="ped206" depart="193.12" type="ped_pedestrian">
        <walk from="26652690#4" to="28413659#4"/>
    </person>
    <person id="ped207" depart="194.05" type="ped_pedestrian">
        <walk from="-28420945#9" to="-28420945#4"/>
    </person>
    <person id="ped208" depart="194.99" type="ped_pedestrian">
        <walk from="-826822880" to="-230599253"/>
    </person>
    <person id="ped209" depart="195.93" type="ped_pedestrian">
        <walk from="-319060205#4" to="28420826#0"/>
    </person>
    <person id="ped210" depart="196.87" type="ped_pedestrian">
        <walk from="-727779328#1" to="-28413739#8"/>
    </person>
    <person id="ped211" depart="197.80" type="ped_pedestrian">
        <walk from="230578276" to="-28413646#20"/>
    </person>
    <person id="ped212" depart="198.74" type="ped_pedestrian">
        <walk from="28413684#7" to="-230594214#2"/>
    </person>
    <person id="ped213" depart="199.68" type="ped_pedestrian">
        <walk from="-439625370#0" to="28186538#1"/>
    </person>
    <person id="ped214" depart="200.62" type="ped_pedestrian">
        <walk from="-230594215#0" to="28419852#10"/>
    </person>
    <person id="ped215" depart="201.55" type="ped_pedestrian">
        <walk from="-28413665#6" to="22837906#0"/>
    </person>
    <person id="ped216" depart="202.49" type="ped_pedestrian">
        <walk from="-28420848#10" to="-316747954#1"/>
    </person>
    <person id="ped217" depart="203.43" type="ped_pedestrian">
        <walk from="28485643#1" to="316747674"/>
    </person>
    <person id="ped218" depart="204.37" type="ped_pedestrian">
        <walk from="-28439197#4" to="-235210803#1"/>
    </person>
    <person id="ped219" depart="205.30" type="ped_pedestrian">
        <walk from="-230594200#4" to="26610012#0"/>
    </person>
    <person id="ped220" depart="206.24" type="ped_pedestrian">
        <walk from="99778737" to="-320649152#1"/>
    </person>
    <person id="ped221" depart="207.18" type="ped_pedestrian">
        <walk from="28419868#5" to="314269352#19"/>
    </person>
    <person id="ped222" depart="208.11" type="ped_pedestrian">
        <walk from="728422520#0" to="-28419989#5"/>
    </person>
    <person id="ped223" depart="209.05" type="ped_pedestrian">
        <walk from="-230594200#7" to="-28413686#1"/>
    </person>
    <person id="ped224" depart="209.99" type="ped_pedestrian">
        <walk from="-28413646#16" to="28419989#1"/>
    </person>
    <person id="ped225" depart="210.93" type="ped_pedestrian">
        <walk from="28186538#0" to="-28420917"/>
    </person>
    <person id="ped226" depart="211.86" type="ped_pedestrian">
        <walk from="28424753#4" to="311851897#1"/>
    </person>
    <person id="ped227" depart="212.80" type="ped_pedestrian">
        <walk from="-28419825#3" to="28413665#7"/>
    </person>
    <person id="ped228" depart="213.74" type="ped_pedestrian">
        <walk from="316622212#0" to="824755237#2"/>
    </person>
    <person id="ped229" depart="214.68" type="ped_pedestrian">
        <walk from="-28275780" to="-230594213#3"/>
    </person>
    <person id="ped230" depart="215.61" type="ped_pedestrian">
        <walk from="-316171203#0" to="28420103#0"/>
    </person>
    <person id="ped231" depart="216.55" type="ped_pedestrian">
        <walk from="822197820#1" to="-447792774#0"/>
    </person>
    <person id="ped232" depart="217.49" type="ped_pedestrian">