<?xml version="1.0" encoding="UTF-8"?>

<!-- generated on Thu Nov  5 09:25:25 2020 by Eclipse SUMO duarouter Version 1.7.0
<configuration xmlns:xsi="http://www.w3.org/2001/XMLSchema-instance" xsi:noNamespaceSchemaLocation="http://sumo.dlr.de/xsd/duarouterConfiguration.xsd">

    <input>
        <net-file value="/home/shashwath/Sumo/2020-11-05-09-24-44/osm.net.xml"/>
        <route-files value="/home/shashwath/Sumo/2020-11-05-09-24-44/osm.bus.trips.xml"/>
    </input>

    <output>
        <output-file value="/home/shashwath/Sumo/2020-11-05-09-24-44/osm.bus.trips.xml.tmp"/>
        <write-trips value="true"/>
    </output>

    <time>
        <begin value="0"/>
        <end value="3600"/>
    </time>

    <report>
        <no-warnings value="true"/>
        <ignore-errors value="true"/>
        <no-step-log value="true"/>
    </report>

</configuration>
-->

<routes xmlns:xsi="http://www.w3.org/2001/XMLSchema-instance" xsi:noNamespaceSchemaLocation="http://sumo.dlr.de/xsd/routes_file.xsd">
    <vType id="bus_bus" vClass="bus"/>
    <trip id="bus0" type="bus_bus" depart="0.00" departLane="best" from="-28485643#1" to="-28424753#11"/>
    <trip id="bus1" type="bus_bus" depart="2.30" departLane="best" from="28451276#3" to="28420852#0"/>
    <trip id="bus2" type="bus_bus" depart="4.60" departLane="best" from="360316344#0" to="-28119664#19"/>
    <trip id="bus3" type="bus_bus" depart="6.90" departLane="best" from="-826123414#0" to="-230599256#0"/>
    <trip id="bus4" type="bus_bus" depart="9.20" departLane="best" from="-28422564#4" to="230599347"/>
    <trip id="bus5" type="bus_bus" depart="11.50" departLane="best" from="-230594214#2" to="-28420006#2"/>
    <trip id="bus6" type="bus_bus" depart="13.80" departLane="best" from="-28424730#0" to="28413646#14"/>
    <trip id="bus7" type="bus_bus" depart="16.10" departLane="best" from="316353906#5" to="-193440381#1"/>
    <trip id="bus8" type="bus_bus" depart="18.40" departLane="best" from="316353905#2" to="28424798#2"/>
    <trip id="bus9" type="bus_bus" depart="20.70" departLane="best" from="-320641815" to="-28413715#2"/>
    <trip id="bus10" type="bus_bus" depart="23.00" departLane="best" from="822239683" to="-319060210#0"/>
    <trip id="bus11" type="bus_bus" depart="25.30" departLane="best" from="-28121252#0" to="-28186529#3"/>
    <trip id="bus12" type="bus_bus" depart="27.60" departLane="best" from="319060208#0" to="28413666#7"/>
    <trip id="bus13" type="bus_bus" depart="29.90" departLane="best" from="316353905#6" to="28451061#5"/>
    <trip id="bus14" type="bus_bus" depart="32.20" departLane="best" from="26610044#3" to="826127937"/>
    <trip id="bus15" type="bus_bus" depart="34.50" departLane="best" from="-360318388#2" to="28121154#3"/>
    <trip id="bus16" type="bus_bus" depart="36.81" departLane="best" from="316747950#2" to="28413689#5"/>
    <trip id="bus17" type="bus_bus" depart="39.11" departLane="best" from="320649150#0" to="28275817#5"/>
    <trip id="bus18" type="bus_bus" depart="41.41" departLane="best" from="28424813#5" to="-230599301#1"/>
    <trip id="bus19" type="bus_bus" depart="43.71" departLane="best" from="-28424774#3" to="-311851900#0"/>
    <trip id="bus20" type="bus_bus" depart="46.01" departLane="best" from="-234376533#0" to="-28424798#2"/>
    <trip id="bus21" type="bus_bus" depart="48.31" departLane="best" from="-28275778#1" to="-28496188"/>
    <trip id="bus22" type="bus_bus" depart="50.61" departLane="best" from="28419825#7" to="-360301033"/>
    <trip id="bus23" type="bus_bus" depart="52.91" departLane="best" from="-360316347#0" to="-28420848#4"/>
    <trip id="bus24" type="bus_bus" depart="55.21" departLane="best" from="-28451979#3" to="727779330#7"/>
    <trip id="bus25" type="bus_bus" depart="57.51" departLane="best" from="28419899#4" to="28413668#8"/>
    <trip id="bus26" type="bus_bus" depart="59.81" departLane="best" from="-28419852#5" to="28451061#3"/>
    <trip id="bus27" type="bus_bus" depart="62.11" departLane="best" from="-28419825#1" to="-360318388#3"/>
    <trip id="bus28" type="bus_bus" depart="64.41" departLane="best" from="85568167#3" to="28419864#1"/>
    <trip id="bus29" type="bus_bus" depart="66.71" departLane="best" from="28131592#0" to="28424606#1"/>
    <trip id="bus30" type="bus_bus" depart="69.01" departLane="best" from="319060205#1" to="315477291#3"/>
    <trip id="bus31" type="bus_bus" depart="71.31" departLane="best" from="-28424779#0" to="-230599258#2"/>
    <trip id="bus33" type="bus_bus" depart="75.91" departLane="best" from="-28420848#9" to="728048252#2"/>
    <trip id="bus34" type="bus_bus" depart="78.21" departLane="best" from="387987832#0" to="230578271#0"/>
    <trip id="bus35" type="bus_bus" depart="80.51" departLane="best" from="-28451253#1" to="-28439150#1"/>
    <trip id="bus36" type="bus_bus" depart="82.81" departLane="best" from="28186538#3" to="-28451061#1"/>
    <trip id="bus37" type="bus_bus" depart="85.11" departLane="best" from="28341080#6" to="360318384#0"/>
    <trip id="bus38" type="bus_bus" depart="87.41" departLane="best" from="-727779328#1" to="-28424606#0"/>
    <trip id="bus39" type="bus_bus" depart="89.71" departLane="best" from="85572502#7" to="230599352#3"/>
    <trip id="bus40" type="bus_bus" depart="92.01" departLane="best" from="316170713#1" to="-826067561"/>
    <trip id="bus41" type="bus_bus" depart="94.31" departLane="best" from="-230599357#1" to="-360828868"/>
    <trip id="bus42" type="bus_bus" depart="96.61" departLane="best" from="85572502#12" to="234376533#0"/>
    <trip id="bus43" type="bus_bus" depart="98.91" departLane="best" from="826123414#0" to="320649151#0"/>
    <trip id="bus44" type="bus_bus" depart="101.21" departLane="best" from="28420852#6" to="26610092#4"/>
    <trip id="bus45" type="bus_bus" depart="103.51" departLane="best" from="-28451979#3" to="28419868#2"/>
    <trip id="bus46" type="bus_bus" depart="105.81" departLane="best" from="-28275817#1" to="-85568167#1"/>
    <trip id="bus47" type="bus_bus" depart="108.12" departLane="best" from="193614220#3" to="729085240#1"/>
    <trip id="bus48" type="bus_bus" depart="110.42" departLane="best" from="358038706#0" to="-28451061#3"/>
    <trip id="bus49" type="bus_bus" depart="112.72" departLane="best" departSpeed="max" from="387833381#0" to="358010825#2"/>
    <trip id="bus50" type="bus_bus" depart="115.02" departLane="best" from="-316170703#2" to="28419858#0"/>
    <trip id="bus51" type="bus_bus" depart="117.32" departLane="best" from="28413668#10" to="-28413689#4"/>
    <trip id="bus52" type="bus_bus" depart="119.62" departLane="best" from="311851899#5" to="26652690#4"/>
    <trip id="bus53" type="bus_bus" depart="121.92" departLane="best" from="-132901844#0" to="-316747956"/>
    <trip id="bus54" type="bus_bus" depart="124.22" departLane="best" from="-230594200#5" to="447792981#2"/>
    <trip id="bus55" type="bus_bus" depart="126.52" departLane="best" from="358989529#0" to="316747954#0"/>
    <trip id="bus56" type="bus_bus" depart="128.82" departLane="best" from="-316171201#2" to="-230599345#4"/>
    <trip id="bus57" type="bus_bus" depart="131.12" departLane="best" from="358318315#0" to="728411713#1"/>
    <trip id="bus58" type="bus_bus" depart="133.42" departLane="best" from="-28119664#14" to="230599270#0"/>
    <trip id="bus59" type="bus_bus" depart="135.72" departLane="best" from="-230599365#1" to="311851901#1"/>
    <trip id="bus60" type="bus_bus" depart="138.02" departLane="best" from="311852703#0" to="-28413646#9"/>
    <trip id="bus61" type="bus_bus" depart="140.32" departLane="best" from="230594215#3" to="28119664#4"/>
    <trip id="bus62" type="bus_bus" depart="142.62" departLane="best" from="-28451253#1" to="358036179#0"/>
    <trip id="bus63" type="bus_bus" depart="144.92" departLane="best" from="-826429722#0" to="-28420852#1"/>
    <trip id="bus64" type="bus_bus" depart="147.22" departLane="best" from="-28420021#0" to="-316171210#3"/>
    <trip id="bus65" type="bus_bus" depart="149.52" departLane="best" from="85572502#1" to="28419913#2"/>
    <trip id="bus66" type="bus_bus" depart="151.82" departLane="best" from="102413343#0" to="230599367#0"/>
    <trip id="bus67" type="bus_bus" depart="154.12" departLane="best" from="-28413643#0" to="-28424753#2"/>
    <trip id="bus68" type="bus_bus" depart="156.42" departLane="best" from="-319885600" to="28413646#10"/>
    <trip id="bus69" type="bus_bus" depart="158.72" departLane="best" from="-28424794#1" to="-28424606#4"/>
    <trip id="bus70" type="bus_bus" depart="161.02" departLane="best" from="-28424774#6" to="361378170#0"/>
    <trip id="bus71" type="bus_bus" depart="163.32" departLane="best" from="-28424897#1" to="28420103#1"/>
    <trip id="bus72" type="bus_bus" depart="165.62" departLane="best" from="-28420855#3" to="-28413665#1"/>
    <trip id="bus73" type="bus_bus" depart="167.92" departLane="best" from="727779331#1" to="28275807#11"/>
    <trip id="bus74" type="bus_bus" depart="170.22" departLane="best" from="230594213#1" to="316170704#4"/>
    <trip id="bus75" type="bus_bus" depart="172.52" departLane="best" from="-28186529#4" to="-826822880"/>
    <trip id="bus76" type="bus_bus" depart="174.82" departLane="best" from="-826429723" to="230594201"/>
    <trip id="bus77" type="bus_bus" depart="177.12" departLane="best" from="28451047#4" to="28420848#0"/>
    <trip id="bus78" type="bus_bus" depart="179.43" departLane="best" from="-728422515" to="-319885607"/>
    <trip id="bus79" type="bus_bus" depart="181.73" departLane="best" from="-28419925#8" to="193440378"/>
    <trip id="bus80" type="bus_bus" depart="184.03" departLane="best" from="-826123414#0" to="-28496211#0"/>
    <trip id="bus81" type="bus_bus" depart="186.33" departLane="best" from="-28439197#9" to="396121468"/>
    <trip id="bus82" type="bus_bus" depart="188.63" departLane="best" departSpeed="max" from="155750883#0" to="320649152#0"/>
    <trip id="bus83" type="bus_bus" depart="190.93" departLane="best" from="28119664#27" to="-230599327#0"/>
    <trip id="bus84" type="bus_bus" depart="193.23" departLane="best" from="99770070#0" to="316747962"/>
    <trip id="bus85" type="bus_bus" depart="195.53" departLane="best" from="319060209#0" to="-28419825#5"/>
    <trip id="bus86" type="bus_bus" depart="197.83" departLane="best" from="230599268#1" to="-28420852#8"/>
    <trip id="bus87" type="bus_bus" depart="200.13" departLane="best" from="-728119351#0" to="-230599349#1"/>
    <trip id="bus88" type="bus_bus" depart="202.43" departLane="best" from="-360318388#3" to="85564965#1"/>
    <trip id="bus89" type="bus_bus" depart="204.73" departLane="best" from="-28451253#2" to="316170704#3"/>
    <trip id="bus90" type="bus_bus" depart="207.03" departLane="best" from="227504216#1" to="-826362131#1"/>
    <trip id="bus91" type="bus_bus" depart="209.33" departLane="best" from="822239686" to="85572502#10"/>
    <trip id="bus92" type="bus_bus" depart="211.63" departLane="best" from="28121154#3" to="28439217"/>
    <trip id="bus93" type="bus_bus" depart="213.93" departLane="best" from="-28413715#1" to="-316170010#2"/>
    <trip id="bus94" type="bus_bus" depart="216.23" departLane="best" from="826123410#0" to="28341080#1"/>
    <trip id="bus95" type="bus_bus" depart="218.53" departLane="best" from="-230599345#2" to="28413623#5"/>
    <trip id="bus96" type="bus_bus" depart="220.83" departLane="best" from="230599335#1" to="319512093#4"/>
    <trip id="bus97" type="bus_bus" depart="223.13" departLane="best" from="-28413723#3" to="822247610#0"/>
    <trip id="bus98" type="bus_bus" depart="225.43" departLane="best" from="-234376533#1" to="-28419913#5"/>
    <trip id="bus99" type="bus_bus" depart="227.73" departLane="best" from="28413646#21" to="28420848#5"/>
    <trip id="bus100" type="bus_bus" depart="230.03" departLane="best" from="-28424813#4" to="-28413623#5"/>
    <trip id="bus101" type="bus_bus" depart="232.33" departLane="best" from="360301044#0" to="-28439150#0"/>
    <trip id="bus102" type="bus_bus" depart="234.63" departLane="best" from="-824755237#2" to="28413623#3"/>
    <trip id="bus103" type="bus_bus" depart="236.93" departLane="best" from="230599376#1" to="727779328#1"/>
    <trip id="bus104" type="bus_bus" depart="239.23" departLane="best" from="-28424898#1" to="-447792981#7"/>
    <trip id="bus105" type="bus_bus" depart="241.53" departLane="best" from="28420045#1" to="-316170703#6"/>
    <trip id="bus106" type="bus_bus" depart="243.83" departLane="best" from="-316622211#2" to="305502407#0"/>
    <trip id="bus107" type="bus_bus" depart="246.13" departLane="best" from="-230599372#1" to="22837906#6"/>
    <trip id="bus108" type="bus_bus" depart="248.43" departLane="best" from="-230599373#1" to="-28420852#6"/>
    <trip id="bus109" type="bus_bus" depart="250.74" departLane="best" from="-28451253#2" to="469323993#2"/>
    <trip id="bus110" type="bus_bus" depart="253.04" departLane="best" from="-360316344#0" to="-28413723#4"/>
    <trip id="bus111" type="bus_bus" depart="255.34" departLane="best" from="316747954#1" to="28424897#1"/>
    <trip id="bus112" type="bus_bus" depart="257.64" departLane="best" from="28413668#4" to="85564975#0"/>
    <trip id="bus113" type="bus_bus" depart="259.94" departLane="best" from="316622212#7" to="-316170703#4"/>
    <trip id="bus114" type="bus_bus" depart="262.24" departLane="best" from="28419970#1" to="727818895"/>
    <trip id="bus115" type="bus_bus" depart="264.54" departLane="best" from="-28413665#8" to="-28341080#4"/>
    <trip id="bus116" type="bus_bus" depart="266.84" departLane="best" from="-28275806#0" to="28131592#0"/>
    <trip id="bus117" type="bus_bus" depart="269.14" departLane="best" from="-28485611#8" to="28413668#0"/>
    <trip id="bus118" type="bus_bus" depart="271.44" departLane="best" from="28419825#2" to="-28451061#5"/>
    <trip id="bus119" type="bus_bus" depart="273.74" departLane="best" from="230599273#2" to="361378170#0"/>
    <trip id="bus120" type="bus_bus" depart="276.04" departLane="best" from="-826429722#1" to="-28485643#6"/>
    <trip id="bus121" type="bus_bus" depart="278.34" departLane="best" from="-168752556#3" to="314269352#17"/>
    <trip id="bus122" type="bus_bus" depart="280.64" departLane="best" from="28419837" to="-28451050#6"/>
    <trip id="bus123" type="bus_bus" depart="282.94" departLane="best" from="28485611#0" to="28121154#2"/>
    <trip id="bus124" type="bus_bus" depart="285.24" departLane="best" from="-826429744#1" to="-227504216#2"/>
    <trip id="bus125" type="bus_bus" depart="287.54" departLane="best" from="-232556558#1" to="360297392"/>
    <trip id="bus126" type="bus_bus" depart="289.84" departLane="best" from="360823235" to="28119664#18"/>
    <trip id="bus127" type="bus_bus" depart="292.14" departLane="best" from="316747955#2" to="28413611#0"/>
    <trip id="bus128" type="bus_bus" depart="294.44" departLane="best" from="-316171205#0" to="360318384#4"/>
    <trip id="bus129" type="bus_bus" depart="296.74" departLane="best" from="316171210#0" to="320649151#0"/>
    <trip id="bus130" type="bus_bus" depart="299.04" departLane="best" from="360318375" to="-28420848#5"/>
    <trip id="bus131" type="bus_bus" depart="301.34" departLane="best" from="315415082#0" to="360301030"/>
    <trip id="bus132" type="bus_bus" depart="303.64" departLane="best" from="-728715425" to="28413715#2"/>
    <trip id="bus133" type="bus_bus" depart="305.94" departLane="best" from="320649153#2" to="826429726#1"/>
    <trip id="bus134" type="bus_bus" depart="308.24" departLane="best" departSpeed="max" from="316355216" to="360279145#0"/>
    <trip id="bus135" type="bus_bus" depart="310.54" departLane="best" from="-230594213#1" to="28485610#2"/>
    <trip id="bus136" type="bus_bus" depart="312.84" departLane="best" from="316325905" to="320649154#3"/>
    <trip id="bus137" type="bus_bus" depart="315.14" departLane="best" departSpeed="max" from="316355216" to="-28451979#0"/>
    <trip id="bus138" type="bus_bus" depart="317.44" departLane="best" from="316170704#2" to="-28275806#3"/>
    <trip id="bus139" type="bus_bus" depart="319.74" departLane="best" from="-28424753#1" to="316622213#2"/>
    <trip id="bus140" type="bus_bus" depart="322.05" departLane="best" from="230578272" to="-316170711"/>
    <trip id="bus141" type="bus_bus" depart="324.35" departLane="best" from="-319060201" to="320649155#0"/>
    <trip id="bus142" type="bus_bus" depart="326.65" departLane="best" departSpeed="max" from="826118152#0" to="-28496211#2"/>
    <trip id="bus143" type="bus_bus" depart="328.95" departLane="best" from="28419852#9" to="-727779328#0"/>
    <trip id="bus144" type="bus_bus" depart="331.25" departLane="best" from="826123412#5" to="-28419899#2"/>
    <trip id="bus145" type="bus_bus" depart="333.55" departLane="best" from="824755237#1" to="-28451253#1"/>
    <trip id="bus146" type="bus_bus" depart="335.85" departLane="best" from="-28275806#5" to="-85568167#1"/>
    <trip id="bus147" type="bus_bus" depart="338.15" departLane="best" from="28451047#2" to="-316325902#1"/>
    <trip id="bus148" type="bus_bus" depart="340.45" departLane="best" from="28413666#3" to="230599357#2"/>
    <trip id="bus149" type="bus_bus" depart="342.75" departLane="best" from="-361388722#0" to="28275817#2"/>
    <trip id="bus150" type="bus_bus" depart="345.05" departLane="best" from="-28439232#7" to="28424924#0"/>
    <trip id="bus151" type="bus_bus" depart="347.35" departLane="best" from="-140226538#1" to="439625370#0"/>
    <trip id="bus152" type="bus_bus" depart="349.65" departLane="best" from="26610092#2" to="28439232#0"/>
    <trip id="bus153" type="bus_bus" depart="351.95" departLane="best" from="28485611#3" to="28420826#1"/>
    <trip id="bus154" type="bus_bus" depart="354.25" departLane="best" from="-360301033" to="-230599366#1"/>
    <trip id="bus155" type="bus_bus" depart="356.55" departLane="best" from="28419989#0" to="-319060203#1"/>
    <trip id="bus156" type="bus_bus" depart="358.85" departLane="best" from="28439197#9" to="-316170704#0"/>
    <trip id="bus157" type="bus_bus" depart="361.15" departLane="best" from="-728422514" to="-315477292#1"/>
    <trip id="bus159" type="bus_bus" depart="365.75" departLane="best" from="728048247" to="28420852#10"/>
    <trip id="bus160" type="bus_bus" depart="368.05" departLane="best" from="360318388#5" to="28413686#1"/>
    <trip id="bus161" type="bus_bus" depart="370.35" departLane="best" from="-316170704#3" to="28119664#27"/>
    <trip id="bus162" type="bus_bus" depart="372.65" departLane="best" from="-132901844#0" to="-311851897#0"/>
    <trip id="bus163" type="bus_bus" depart="374.95" departLane="best" from="-826429749" to="28341080#3"/>
    <trip id="bus164" type="bus_bus" depart="377.25" departLane="best" from="28419913#6" to="230594200#1"/>
    <trip id="bus165" type="bus_bus" depart="379.55" departLane="best" departSpeed="max" from="155750883#0" to="-28420852#8"/>
    <trip id="bus166" type="bus_bus" depart="381.85" departLane="best" from="230594213#4" to="360823220"/>
    <trip id="bus167" type="bus_bus" depart="384.15" departLane="best" from="316171209" to="-28419852#11"/>
    <trip id="bus168" type="bus_bus" depart="386.45" departLane="best" from="28419825#10" to="-319060209#0"/>
    <trip id="bus169" type="bus_bus" depart="388.75" departLane="best" from="316622213#2" to="305502018"/>
    <trip id="bus170" type="bus_bus" depart="391.05" departLane="best" from="28420103#3" to="-28424753#15"/>
    <trip id="bus171" type="bus_bus" depart="393.36" departLane="best" from="-28438826#3" to="230599252#1"/>
    <trip id="bus172" type="bus_bus" depart="395.66" departLane="best" from="319060209#4" to="-230599373#0"/>
    <trip id="bus173" type="bus_bus" depart="397.96" departLane="best" from="-822247611" to="28419825#12"/>
    <trip id="bus174" type="bus_bus" depart="400.26" departLane="best" from="-28419970#1" to="28424794#4"/>
    <trip id="bus175" type="bus_bus" depart="402.56" departLane="best" from="230599308" to="-28424942#1"/>
    <trip id="bus176" type="bus_bus" depart="404.86" departLane="best" from="28419915#3" to="-193440376#0"/>
    <trip id="bus177" type="bus_bus" depart="407.16" departLane="best" from="299483420#1" to="314269352#13"/>
    <trip id="bus178" type="bus_bus" depart="409.46" departLane="best" from="-28275780" to="-826429725"/>
    <trip id="bus179" type="bus_bus" depart="411.76" departLane="best" from="28413646#3" to="728422519#0"/>
    <trip id="bus180" type="bus_bus" depart="414.06" departLane="best" from="360314647#0" to="28413684#11"/>
    <trip id="bus181" type="bus_bus" depart="416.36" departLane="best" from="316747951#2" to="28119664#26"/>
    <trip id="bus182" type="bus_bus" depart="418.66" departLane="best" from="230594215#1" to="-28451047#2"/>
    <trip id="bus183" type="bus_bus" depart="420.96" departLane="best" from="311852703#0" to="230599374#1"/>
    <trip id="bus184" type="bus_bus" depart="423.26" departLane="best" from="28413723#4" to="-28485631#1"/>
    <trip id="bus185" type="bus_bus" depart="425.56" departLane="best" from="-234376524#5" to="-311851894#1"/>
    <trip id="bus186" type="bus_bus" depart="427.86" departLane="best" from="26610181" to="-28413666#6"/>
    <trip id="bus187" type="bus_bus" depart="430.16" departLane="best" from="28424891#1" to="-230599357#3"/>
    <trip id="bus188" type="bus_bus" depart="432.46" departLane="best" from="-729085240#1" to="26654018#5"/>
    <trip id="bus189" type="bus_bus" depart="434.76" departLane="best" from="-826067556" to="361378160"/>
    <trip id="bus190" type="bus_bus" depart="437.06" departLane="best" from="319885601" to="311852705"/>
    <trip id="bus191" type="bus_bus" depart="439.36" departLane="best" from="-360823235" to="-193440381#0"/>
    <trip id="bus192" type="bus_bus" depart="441.66" departLane="best" from="-358010825#0" to="305502408#4"/>
    <trip id="bus193" type="bus_bus" depart="443.96" departLane="best" from="319512093#1" to="729085240#0"/>
    <trip id="bus194" type="bus_bus" depart="446.26" departLane="best" from="-824755237#2" to="299483420#1"/>
    <trip id="bus195" type="bus_bus" depart="448.56" departLane="best" from="28119664#11" to="28413666#5"/>
    <trip id="bus196" type="bus_bus" depart="450.86" departLane="best" from="-28424730#0" to="-28424606#1"/>
    <trip id="bus197" type="bus_bus" depart="453.16" departLane="best" from="-85568387#4" to="-230599254"/>
    <trip id="bus198" type="bus_bus" depart="455.46" departLane="best" from="-728422518#2" to="-28419825#13"/>
    <trip id="bus199" type="bus_bus" depart="457.76" departLane="best" from="230594200#6" to="-28413646#6"/>
    <trip id="bus200" type="bus_bus" depart="460.06" departLane="best" from="-447792981#3" to="28275779#2"/>
    <trip id="bus201" type="bus_bus" depart="462.36" departLane="best" from="-230599326#1" to="-360318388#2"/>
    <trip id="bus202" type="bus_bus" depart="464.67" departLane="best" from="-28420852#10" to="-316747962"/>
    <trip id="bus203" type="bus_bus" depart="466.97" departLane="best" from="311851899#0" to="-360318388#2"/>
    <trip id="bus204" type="bus_bus" depart="469.27" departLane="best" from="299483420#3" to="316747954#1"/>
    <trip id="bus205" type="bus_bus" depart="471.57" departLane="best" from="-230594200#5" to="26652690#4"/>
    <trip id="bus206" type="bus_bus" depart="473.87" departLane="best" from="99778737" to="-320649155#5"/>
    <trip id="bus207" type="bus_bus" depart="476.17" departLane="best" from="28419907#2" to="316170703#1"/>
    <trip id="bus208" type="bus_bus" depart="478.47" departLane="best" from="28419908#3" to="305502408#6"/>
    <trip id="bus209" type="bus_bus" depart="480.77" departLane="best" from="729016166#0" to="-28420006#4"/>
    <trip id="bus210" type="bus_bus" depart="483.07" departLane="best" from="-28413646#21" to="28420103#4"/>
    <trip id="bus211" type="bus_bus" depart="485.37" departLane="best" from="28275778#0" to="-28422564#0"/>
    <trip id="bus212" type="bus_bus" depart="487.67" departLane="best" from="28424794#2" to="314269347"/>
    <trip id="bus213" type="bus_bus" depart="489.97" departLane="best" from="28485646#1" to="-28341080#1"/>
    <trip id="bus214" type="bus_bus" depart="492.27" departLane="best" from="316622213#4" to="824755236"/>
    <trip id="bus215" type="bus_bus" depart="494.57" departLane="best" from="-316171211#1" to="28420852#10"/>
    <trip id="bus216" type="bus_bus" depart="496.87" departLane="best" from="822247610#1" to="-469323991#0"/>
    <trip id="bus217" type="bus_bus" depart="499.17" departLane="best" from="28424730#4" to="28413739#6"/>
    <trip id="bus218" type="bus_bus" depart="501.47" departLane="best" from="-28275778#3" to="314269352#20"/>
    <trip id="bus219" type="bus_bus" depart="503.77" departLane="best" from="319060210#1" to="28413666#0"/>
    <trip id="bus220" type="bus_bus" depart="506.07" departLane="best" from="316170010#0" to="-320649154#0"/>
    <trip id="bus221" type="bus_bus" depart="508.37" departLane="best" from="319060209#3" to="316747152#7"/>
    <trip id="bus222" type="bus_bus" depart="510.67" departLane="best" from="-28275779#6" to="822247610#0"/>
    <trip id="bus223" type="bus_bus" depart="512.97" departLane="best" from="28419825#7" to="316747951#2"/>
    <trip id="bus224" type="bus_bus" depart="515.27" departLane="best" from="28424897#2" to="-85568387#0"/>
    <trip id="bus225" type="bus_bus" depart="517.57" departLane="best" from="28451181#0" to="824755237#1"/>
    <trip id="bus226" type="bus_bus" depart="519.87" departLane="best" from="-28485610#7" to="316524162#3"/>
    <trip id="bus227" type="bus_bus" depart="522.17" departLane="best" from="26610092#1" to="230599267#2"/>
    <trip id="bus228" type="bus_bus" depart="524.47" departLane="best" from="-85568387#3" to="28451253#1"/>
    <trip id="bus229" type="bus_bus" depart="526.77" departLane="best" from="-28485605#0" to="319512093#1"/>
    <trip id="bus230" type="bus_bus" depart="529.07" departLane="best" from="316747951#2" to="-28119664#18"/>
    <trip id="bus231" type="bus_bus" depart="531.37" departLane="best" from="360122666" to="-28424942#0"/>
    <trip id="bus232" type="bus_bus" depart="533.67" departLane="best" from="230594198#1" to="28413672#2"/>
    <trip id="bus233" type="bus_bus" depart="535.98" departLane="best" from="-360318388#3" to="-230599253"/>
    <trip id="bus234" type="bus_bus" depart="538.28" departLane="best" from="319511467" to="-28419907#3"/>
    <trip id="bus235" type="bus_bus" depart="540.58" departLane="best" from="-28420852#3" to="316325903#3"/>
    <trip id="bus236" type="bus_bus" depart="542.88" departLane="best" from="-320641815" to="360122667"/>
    <trip id="bus237" type="bus_bus" depart="545.18" departLane="best" from="28424798#1" to="-28485643#5"/>
    <trip id="bus238" type="bus_bus" depart="547.48" departLane="best" from="-227504216#3" to="728422515"/>
    <trip id="bus239" type="bus_bus" depart="549.78" departLane="best" from="230599274#0" to="311851899#1"/>
    <trip id="bus240" type="bus_bus" depart="552.08" departLane="best" from="28424730#4" to="28419907#0"/>
    <trip id="bus241" type="bus_bus" depart="554.38" departLane="best" from="230599282#2" to="316171210#0"/>
    <trip id="bus242" type="bus_bus" depart="556.68" departLane="best" from="-28121252#1" to="-28424730#3"/>
    <trip id="bus243" type="bus_bus" depart="558.98" departLane="best" from="235210803#0" to="-826429726#1"/>
    <trip id="bus244" type="bus_bus" depart="561.28" departLane="best" from="28485643#1" to="-319060204"/>
    <trip id="bus245" type="bus_bus" depart="563.58" departLane="best" from="28424798#7" to="-28485611#1"/>
    <trip id="bus246" type="bus_bus" depart="565.88" departLane="best" from="-28439212#4" to="-28413642#0"/>
    <trip id="bus247" type="bus_bus" depart="568.18" departLane="best" from="-28419947#1" to="-28413623#4"/>
    <trip id="bus248" type="bus_bus" depart="570.48" departLane="best" from="-28419913#4" to="-28420945#3"/>
    <trip id="bus249" type="bus_bus" depart="572.78" departLane="best" from="230599267#1" to="28451047#1"/>
    <trip id="bus250" type="bus_bus" depart="575.08" departLane="best" from="826429740#1" to="234376524#1"/>
    <trip id="bus251" type="bus_bus" depart="577.38" departLane="best" from="-28419970#0" to="-28424774#1"/>
    <trip id="bus252" type="bus_bus" depart="579.68" departLane="best" departSpeed="max" from="24563872" to="-28485631#0"/>
    <trip id="bus253" type="bus_bus" depart="581.98" departLane="best" from="28424774#5" to="-28413646#21"/>
    <trip id="bus254" type="bus_bus" depart="584.28" departLane="best" from="358010825#3" to="28275808#3"/>
    <trip id="bus255" type="bus_bus" depart="586.58" departLane="best" from="-28419913#1" to="-230599327#3"/>
    <trip id="bus256" type="bus_bus" depart="588.88" departLane="best" from="728048252#1" to="230599257#1"/>
    <trip id="bus257" type="bus_bus" depart="591.18" departLane="best" departSpeed="max" from="316747150#0" to="-727840610"/>
    <trip id="bus258" type="bus_bus" depart="593.48" departLane="best" from="28186550#2" to="-316170707#1"/>
    <trip id="bus259" type="bus_bus" depart="595.78" departLane="best" from="85568387#7" to="-28413623#1"/>
    <trip id="bus260" type="bus_bus" depart="598.08" departLane="best" from="311851901#2" to="28413668#13"/>
    <trip id="bus261" type="bus_bus" depart="600.38" departLane="best" departSpeed="max" from="155750883#0" to="320649150#0"/>
    <trip id="bus262" type="bus_bus" depart="602.68" departLane="best" from="85568170#0" to="-316170712#0"/>
    <trip id="bus263" type="bus_bus" depart="604.98" departLane="best" from="28413689#2" to="28413672#0"/>
    <trip id="bus265" type="bus_bus" depart="609.59" departLane="best" from="-168752556#0" to="193440380#3"/>
    <trip id="bus266" type="bus_bus" depart="611.89" departLane="best" from="28413646#17" to="-311852701#0"/>
    <trip id="bus267" type="bus_bus" depart="614.19" departLane="best" from="28424813#0" to="227504216#1"/>
    <trip id="bus268" type="bus_bus" depart="616.49" departLane="best" from="28422564#2" to="396121468"/>