<?xml version="1.0" encoding="UTF-8"?>

<!-- generated on Thu Nov  5 09:25:06 2020 by Eclipse SUMO duarouter Version 1.7.0
<configuration xmlns:xsi="http://www.w3.org/2001/XMLSchema-instance" xsi:noNamespaceSchemaLocation="http://sumo.dlr.de/xsd/duarouterConfiguration.xsd">

    <input>
        <net-file value="/home/shashwath/Sumo/2020-11-05-09-24-44/osm.net.xml"/>
        <route-files value="/home/shashwath/Sumo/2020-11-05-09-24-44/osm.passenger.trips.xml"/>
    </input>

    <output>
        <output-file value="/home/shashwath/Sumo/2020-11-05-09-24-44/osm.passenger.trips.xml.tmp"/>
        <write-trips value="true"/>
    </output>

    <time>
        <begin value="0"/>
        <end value="3600"/>
    </time>

    <report>
        <no-warnings value="true"/>
        <ignore-errors value="true"/>
        <no-step-log value="true"/>
    </report>

</configuration>
-->

<routes xmlns:xsi="http://www.w3.org/2001/XMLSchema-instance" xsi:noNamespaceSchemaLocation="http://sumo.dlr.de/xsd/routes_file.xsd">
    <vType id="veh_passenger" vClass="passenger"/>
    <trip id="veh0" type="veh_passenger" depart="0.00" departLane="best" from="28419907#1" to="-230594213#4"/>
    <trip id="veh1" type="veh_passenger" depart="0.77" departLane="best" from="-299483420#3" to="-28424774#6"/>
    <trip id="veh2" type="veh_passenger" depart="1.53" departLane="best" from="28496211#2" to="28424753#13"/>
    <trip id="veh3" type="veh_passenger" depart="2.30" departLane="best" from="360316366#0" to="-28119664#28"/>
    <trip id="veh4" type="veh_passenger" depart="3.07" departLane="best" from="-85564965#4" to="-230599257#0"/>
    <trip id="veh5" type="veh_passenger" depart="3.83" departLane="best" from="-28424753#2" to="230599365#0"/>
    <trip id="veh6" type="veh_passenger" depart="4.60" departLane="best" from="-230594215#2" to="-28420103#3"/>
    <trip id="veh7" type="veh_passenger" depart="5.37" departLane="best" from="28419931#3" to="28131592#3"/>
    <trip id="veh8" type="veh_passenger" depart="6.13" departLane="best" from="-28424753#8" to="28413665#7"/>
    <trip id="veh9" type="veh_passenger" depart="6.90" departLane="best" from="316622212#0" to="-193440381#2"/>
    <trip id="veh10" type="veh_passenger" depart="7.67" departLane="best" departSpeed="max" from="316355216" to="28438826#1"/>
    <trip id="veh11" type="veh_passenger" depart="8.43" departLane="best" from="-320649155#5" to="-28413725#5"/>
    <trip id="veh12" type="veh_passenger" depart="9.20" departLane="best" from="824731620#1" to="-320649152#0"/>
    <trip id="veh13" type="veh_passenger" depart="9.97" departLane="best" from="319511469#7" to="28413684#7"/>
    <trip id="veh14" type="veh_passenger" depart="10.73" departLane="best" from="316524162#1" to="28485643#6"/>
    <trip id="veh15" type="veh_passenger" depart="11.50" departLane="best" from="26654018#5" to="826429723"/>
    <trip id="veh16" type="veh_passenger" depart="12.27" departLane="best" from="-439625373#0" to="28275778#11"/>
    <trip id="veh17" type="veh_passenger" depart="13.04" departLane="best" from="316747954#1" to="28419825#11"/>
    <trip id="veh18" type="veh_passenger" depart="13.80" departLane="best" from="320649155#3" to="28413644#0"/>
    <trip id="veh19" type="veh_passenger" depart="14.57" departLane="best" from="28439197#0" to="-230599311"/>
    <trip id="veh20" type="veh_passenger" depart="15.34" departLane="best" from="-28424813#0" to="-315477292#0"/>
    <trip id="veh21" type="veh_passenger" depart="16.10" departLane="best" from="-242786618#2" to="-28424898#1"/>
    <trip id="veh22" type="veh_passenger" depart="16.87" departLane="best" from="-28275778#9" to="-299483420#9"/>
    <trip id="veh23" type="veh_passenger" depart="17.64" departLane="best" from="28419881#0" to="-360316363#0"/>
    <trip id="veh24" type="veh_passenger" depart="18.40" departLane="best" from="-360823218" to="-28420917"/>
    <trip id="veh25" type="veh_passenger" depart="19.17" departLane="best" from="-28485631#1" to="728048246#3"/>
    <trip id="veh26" type="veh_passenger" depart="19.94" departLane="best" from="-28419868#3" to="28485643#3"/>
    <trip id="veh27" type="veh_passenger" depart="20.70" departLane="best" from="-28419837" to="-439625373#0"/>
    <trip id="veh28" type="veh_passenger" depart="21.47" departLane="best" from="28275778#2" to="28424794#6"/>
    <trip id="veh29" type="veh_passenger" depart="22.24" departLane="best" from="319060208#0" to="316170706#4"/>
    <trip id="veh30" type="veh_passenger" depart="23.00" departLane="best" from="-28424813#4" to="-230599263#0"/>
    <trip id="veh31" type="veh_passenger" depart="23.77" departLane="best" from="-316747954#2" to="-28485643#0"/>
    <trip id="veh32" type="veh_passenger" depart="24.54" departLane="best" from="-28420945#5" to="728119351#3"/>
    <trip id="veh33" type="veh_passenger" depart="25.30" departLane="best" from="358989529#9" to="-316747952#1"/>
    <trip id="veh34" type="veh_passenger" depart="26.07" departLane="best" from="28419989#7" to="-728422520#2"/>
    <trip id="veh35" type="veh_passenger" depart="26.84" departLane="best" from="396121255#4" to="230594205"/>
    <trip id="veh36" type="veh_passenger" depart="27.60" departLane="best" from="-28485611#7" to="-28439232#0"/>
    <trip id="veh37" type="veh_passenger" depart="28.37" departLane="best" from="28275779#9" to="-28485610#4"/>
    <trip id="veh38" type="veh_passenger" depart="29.14" departLane="best" from="28413646#16" to="361378171"/>
    <trip id="veh39" type="veh_passenger" depart="29.90" departLane="best" from="-729085243#5" to="-28424753#3"/>
    <trip id="veh40" type="veh_passenger" depart="30.67" departLane="best" from="85572502#7" to="230599373#2"/>
    <trip id="veh41" type="veh_passenger" depart="31.44" departLane="best" from="-28131592#0" to="-230599319#1"/>
    <trip id="veh42" type="veh_passenger" depart="32.20" departLane="best" from="-28275817#5" to="28419854#1"/>
    <trip id="veh43" type="veh_passenger" depart="32.97" departLane="best" from="316325903#1" to="-85564965#2"/>
    <trip id="veh44" type="veh_passenger" depart="33.74" departLane="best" from="-230599358#2" to="-447792774#0"/>
    <trip id="veh45" type="veh_passenger" depart="34.50" departLane="best" from="85572502#4" to="26652690#4"/>
    <trip id="veh47" type="veh_passenger" depart="36.04" departLane="best" from="-230578271#0" to="28451979#2"/>
    <trip id="veh48" type="veh_passenger" depart="36.81" departLane="best" from="28424753#15" to="28119664#19"/>
    <trip id="veh49" type="veh_passenger" depart="37.57" departLane="best" from="-28485631#0" to="28419915#3"/>
    <trip id="veh50" type="veh_passenger" depart="38.34" departLane="best" from="-28341080#2" to="168753651"/>
    <trip id="veh51" type="veh_passenger" depart="39.11" departLane="best" from="230578276" to="729085243#6"/>
    <trip id="veh52" type="veh_passenger" depart="39.87" departLane="best" from="358989529#8" to="-28485610#7"/>
    <trip id="veh53" type="veh_passenger" depart="40.64" departLane="best" from="230599356#0" to="-28419908#6"/>
    <trip id="veh54" type="veh_passenger" depart="41.41" departLane="best" from="396121254#0" to="358989529#0"/>
    <trip id="veh55" type="veh_passenger" depart="42.17" departLane="best" from="-316170712#0" to="28419913#3"/>
    <trip id="veh56" type="veh_passenger" depart="42.94" departLane="best" from="314269352#1" to="28119664#28"/>
    <trip id="veh57" type="veh_passenger" depart="43.71" departLane="best" from="316170704#0" to="26652690#6"/>
    <trip id="veh58" type="veh_passenger" depart="44.47" departLane="best" from="-132901844#0" to="-319060205#0"/>
    <trip id="veh59" type="veh_passenger" depart="45.24" departLane="best" from="-230594200#7" to="727760806#2"/>
    <trip id="veh60" type="veh_passenger" depart="46.01" departLane="best" from="360279209" to="317504270#1"/>
    <trip id="veh61" type="veh_passenger" depart="46.77" departLane="best" from="-316333787#2" to="-230599349#4"/>
    <trip id="veh62" type="veh_passenger" depart="47.54" departLane="best" from="360279145#0" to="728422519#2"/>
    <trip id="veh63" type="veh_passenger" depart="48.31" departLane="best" from="-28119664#23" to="230599322"/>
    <trip id="veh64" type="veh_passenger" depart="49.07" departLane="best" from="-230599369#0" to="314269352#19"/>
    <trip id="veh65" type="veh_passenger" depart="49.84" departLane="best" from="230599267#4" to="28186550#1"/>
    <trip id="veh66" type="veh_passenger" depart="50.61" departLane="best" from="-28485611#8" to="358989529#7"/>
    <trip id="veh67" type="veh_passenger" depart="51.37" departLane="best" from="-85568167#1" to="-28420945#7"/>
    <trip id="veh68" type="veh_passenger" depart="52.14" departLane="best" from="28119664#19" to="28485643#6"/>
    <trip id="veh69" type="veh_passenger" depart="52.91" departLane="best" from="-28420842#3" to="-316747674"/>
    <trip id="veh70" type="veh_passenger" depart="53.67" departLane="best" from="85572502#12" to="28419989#4"/>
    <trip id="veh71" type="veh_passenger" depart="54.44" departLane="best" from="183322465#1" to="234376531"/>
    <trip id="veh72" type="veh_passenger" depart="55.21" departLane="best" from="-28413646#16" to="-28424794#2"/>
    <trip id="veh73" type="veh_passenger" depart="55.97" departLane="best" from="-320649154#2" to="28413665#4"/>
    <trip id="veh74" type="veh_passenger" depart="56.74" departLane="best" from="-230599373#1" to="28419881#0"/>
    <trip id="veh75" type="veh_passenger" depart="57.51" departLane="best" from="-28424813#4" to="387987838"/>
    <trip id="veh76" type="veh_passenger" depart="58.27" departLane="best" from="320649154#0" to="-230599373#0"/>
    <trip id="veh77" type="veh_passenger" depart="59.04" departLane="best" from="-28438826#2" to="28420945#1"/>
    <trip id="veh79" type="veh_passenger" depart="60.58" departLane="best" from="728048247" to="28341080#5"/>
    <trip id="veh80" type="veh_passenger" depart="61.34" departLane="best" from="230599263#5" to="316171211#1"/>
    <trip id="veh82" type="veh_passenger" depart="62.88" departLane="best" from="-28186550#2" to="140226539#4"/>
    <trip id="veh83" type="veh_passenger" depart="63.64" departLane="best" from="-85568167#2" to="230599256#0"/>
    <trip id="veh84" type="veh_passenger" depart="64.41" departLane="best" from="28485611#3" to="28424644"/>
    <trip id="veh85" type="veh_passenger" depart="65.18" departLane="best" departSpeed="max" from="85564968#0" to="-28275778#1"/>
    <trip id="veh86" type="veh_passenger" depart="65.94" departLane="best" from="-822233239" to="-320649154#3"/>
    <trip id="veh87" type="veh_passenger" depart="66.71" departLane="best" from="320649155#3" to="-28439232#7"/>
    <trip id="veh88" type="veh_passenger" depart="67.48" departLane="best" from="-28419989#2" to="22837906#6"/>
    <trip id="veh89" type="veh_passenger" depart="68.24" departLane="best" from="-85564965#4" to="-299483421#2"/>
    <trip id="veh90" type="veh_passenger" depart="69.01" departLane="best" from="-28439243#1" to="447792774#2"/>
    <trip id="veh91" type="veh_passenger" depart="69.78" departLane="best" from="193614220#0" to="321934113#3"/>
    <trip id="veh92" type="veh_passenger" depart="70.54" departLane="best" from="28131592#5" to="-230599329#0"/>
    <trip id="veh93" type="veh_passenger" depart="71.31" departLane="best" from="99770070#0" to="319060205#5"/>
    <trip id="veh94" type="veh_passenger" depart="72.08" departLane="best" from="826127937" to="447792981#9"/>
    <trip id="veh95" type="veh_passenger" depart="72.84" departLane="best" from="319512093#0" to="-28419852#3"/>
    <trip id="veh96" type="veh_passenger" depart="73.61" departLane="best" from="230599317#1" to="-28424606#1"/>
    <trip id="veh97" type="veh_passenger" depart="74.38" departLane="best" from="-439625373#1" to="85564975#0"/>
    <trip id="veh98" type="veh_passenger" depart="75.14" departLane="best" from="-28485611#8" to="316171211#0"/>
    <trip id="veh99" type="veh_passenger" depart="75.91" departLane="best" from="230594197#2" to="-85564965#4"/>
    <trip id="veh100" type="veh_passenger" depart="76.68" departLane="best" from="824731620#1" to="85572502#2"/>
    <trip id="veh101" type="veh_passenger" depart="77.44" departLane="best" from="28275778#0" to="28451253#3"/>
    <trip id="veh102" type="veh_passenger" depart="78.21" departLane="best" from="-28413725#4" to="-316170706#3"/>
    <trip id="veh103" type="veh_passenger" depart="78.98" departLane="best" from="826123414#1" to="28413646#12"/>
    <trip id="veh104" type="veh_passenger" depart="79.74" departLane="best" from="28119664#29" to="311851901#2"/>
    <trip id="veh105" type="veh_passenger" depart="80.51" departLane="best" from="-230599349#2" to="28413659#1"/>
    <trip id="veh106" type="veh_passenger" depart="81.28" departLane="best" from="230599358#1" to="320642826#1"/>
    <trip id="veh107" type="veh_passenger" depart="82.04" departLane="best" from="-28413739#6" to="824731619#0"/>
    <trip id="veh108" type="veh_passenger" depart="82.81" departLane="best" from="-242786618#3" to="-28419931#1"/>
    <trip id="veh109" type="veh_passenger" depart="83.58" departLane="best" from="28413666#0" to="28424753#0"/>
    <trip id="veh110" type="veh_passenger" depart="84.35" departLane="best" from="-28424919#0" to="-28413646#10"/>
    <trip id="veh111" type="veh_passenger" depart="85.11" departLane="best" from="360316363#0" to="-28439218"/>
    <trip id="veh112" type="veh_passenger" depart="85.88" departLane="best" from="28413665#9" to="28419825#2"/>
    <trip id="veh113" type="veh_passenger" depart="86.65" departLane="best" from="-826429749" to="28413646#9"/>
    <trip id="veh114" type="veh_passenger" depart="87.41" departLane="best" departSpeed="max" from="24563872" to="727840610"/>
    <trip id="veh115" type="veh_passenger" depart="88.18" departLane="best" from="-28420848#6" to="28451061#5"/>
    <trip id="veh116" type="veh_passenger" depart="88.95" departLane="best" from="-28439146#0" to="-728715425"/>
    <trip id="veh117" type="veh_passenger" depart="89.71" departLane="best" from="28420855#1" to="-316170713#1"/>
    <trip id="veh118" type="veh_passenger" depart="90.48" departLane="best" from="-316747955#2" to="311852704#0"/>
    <trip id="veh119" type="veh_passenger" depart="91.25" departLane="best" from="-230599376#0" to="230594203"/>
    <trip id="veh120" type="veh_passenger" depart="92.01" departLane="best" from="-232556558#1" to="-28422564#4"/>
    <trip id="veh121" type="veh_passenger" depart="92.78" departLane="best" from="-28485611#8" to="727779331#5"/>
    <trip id="veh122" type="veh_passenger" depart="93.55" departLane="best" from="-360318388#3" to="-28413739#6"/>
    <trip id="veh123" type="veh_passenger" depart="94.31" departLane="best" from="316747963#0" to="28439212#0"/>
    <trip id="veh124" type="veh_passenger" depart="95.08" departLane="best" from="28413689#3" to="85568167#0"/>
    <trip id="veh125" type="veh_passenger" depart="95.85" departLane="best" from="28419989#2" to="-193614220#2"/>
    <trip id="veh126" type="veh_passenger" depart="96.61" departLane="best" departSpeed="max" from="316747150#0" to="-316170712#1"/>
    <trip id="veh127" type="veh_passenger" depart="97.38" departLane="best" from="28420826#1" to="728048252#2"/>
    <trip id="veh128" type="veh_passenger" depart="98.15" departLane="best" from="-28413666#6" to="-28413623#1"/>
    <trip id="veh129" type="veh_passenger" depart="98.91" departLane="best" from="-28275810#1" to="28275778#5"/>
    <trip id="veh130" type="veh_passenger" depart="99.68" departLane="best" from="-28918721" to="28413686#0"/>
    <trip id="veh131" type="veh_passenger" depart="100.45" departLane="best" from="28451050#2" to="-28420848#2"/>
    <trip id="veh132" type="veh_passenger" depart="101.21" departLane="best" from="28419868#1" to="-28485611#1"/>
    <trip id="veh133" type="veh_passenger" depart="101.98" departLane="best" from="230599327#0" to="387987838"/>
    <trip id="veh134" type="veh_passenger" depart="102.75" departLane="best" from="319060588" to="-28131592#6"/>
    <trip id="veh135" type="veh_passenger" depart="103.51" departLane="best" from="-85568167#2" to="-299483420#7"/>
    <trip id="veh136" type="veh_passenger" depart="104.28" departLane="best" from="-168752556#3" to="316170010#5"/>
    <trip id="veh137" type="veh_passenger" depart="105.05" departLane="best" from="28419899#2" to="-28485605#0"/>
    <trip id="veh138" type="veh_passenger" depart="105.81" departLane="best" from="299483420#8" to="28275778#10"/>
    <trip id="veh139" type="veh_passenger" depart="106.58" departLane="best" from="132901844#1" to="-227504216#3"/>
    <trip id="veh140" type="veh_passenger" depart="107.35" departLane="best" from="-234376524#5" to="360314925"/>
    <trip id="veh141" type="veh_passenger" depart="108.12" departLane="best" from="367410392" to="28131592#5"/>
    <trip id="veh142" type="veh_passenger" depart="108.88" departLane="best" from="316747964#1" to="28413646#5"/>
    <trip id="veh143" type="veh_passenger" depart="109.65" departLane="best" from="-28413689#3" to="-28413659#6"/>
    <trip id="veh144" type="veh_passenger" depart="110.42" departLane="best" from="-316333787#4" to="361388726"/>
    <trip id="veh146" type="veh_passenger" depart="111.95" departLane="best" from="360828868" to="-28420945#0"/>
    <trip id="veh147" type="veh_passenger" depart="112.72" departLane="best" from="-28439243#0" to="-28275779#6"/>
    <trip id="veh148" type="veh_passenger" depart="113.48" departLane="best" from="316170706#1" to="360316347#0"/>
    <trip id="veh149" type="veh_passenger" depart="114.25" departLane="best" from="-824731620#0" to="28419825#6"/>
    <trip id="veh150" type="veh_passenger" depart="115.02" departLane="best" from="-28413725#3" to="727779328#1"/>
    <trip id="veh151" type="veh_passenger" depart="115.78" departLane="best" from="321934113#2" to="826429740#1"/>
    <trip id="veh152" type="veh_passenger" depart="116.55" departLane="best" from="316622212#5" to="360301043#2"/>
    <trip id="veh153" type="veh_passenger" depart="117.32" departLane="best" from="-230594213#4" to="299483420#7"/>
    <trip id="veh154" type="veh_passenger" depart="118.08" departLane="best" from="-320641814" to="727779330#4"/>
    <trip id="veh155" type="veh_passenger" depart="118.85" departLane="best" from="316353906#2" to="358010825#4"/>
    <trip id="veh156" type="veh_passenger" depart="119.62" departLane="best" from="316622212#5" to="-28485618#2"/>
    <trip id="veh157" type="veh_passenger" depart="120.38" departLane="best" from="316171208" to="-28275810#4"/>
    <trip id="veh158" type="veh_passenger" depart="121.15" departLane="best" from="358302725#3" to="320649155#4"/>
    <trip id="veh159" type="veh_passenger" depart="121.92" departLane="best" from="-28424774#5" to="316747154#0"/>
    <trip id="veh160" type="veh_passenger" depart="122.68" departLane="best" from="230594206#0" to="-316171210#4"/>
    <trip id="veh161" type="veh_passenger" depart="123.45" departLane="best" from="316333787#4" to="-28424798#6"/>
    <trip id="veh162" type="veh_passenger" depart="124.22" departLane="best" from="-230594212" to="-28420006#1"/>
    <trip id="veh163" type="veh_passenger" depart="124.98" departLane="best" from="826123412#4" to="-305502406#1"/>
    <trip id="veh164" type="veh_passenger" depart="125.75" departLane="best" from="28419908#5" to="-729085243#4"/>
    <trip id="veh165" type="veh_passenger" depart="126.52" departLane="best" from="85564965#1" to="28119664#16"/>
    <trip id="veh166" type="veh_passenger" depart="127.28" departLane="best" from="728411720" to="-28413623#1"/>
    <trip id="veh167" type="veh_passenger" depart="128.05" departLane="best" from="826429722#1" to="-28419908#6"/>
    <trip id="veh168" type="veh_passenger" depart="128.82" departLane="best" departSpeed="max" from="826118152#0" to="-28485611#7"/>
    <trip id="veh169" type="veh_passenger" depart="129.58" departLane="best" from="-28275817#1" to="168752556#3"/>
    <trip id="veh170" type="veh_passenger" depart="130.35" departLane="best" from="28413676" to="233244440"/>
    <trip id="veh171" type="veh_passenger" depart="131.12" departLane="best" from="-469323991#1" to="28413643#0"/>
    <trip id="veh172" type="veh_passenger" depart="131.89" departLane="best" from="-28451050#6" to="28439239#1"/>
    <trip id="veh173" type="veh_passenger" depart="132.65" departLane="best" from="-140226538#1" to="447792981#6"/>
    <trip id="veh174" type="veh_passenger" depart="133.42" departLane="best" from="28119664#15" to="28451276#2"/>
    <trip id="veh175" type="veh_passenger" depart="134.19" departLane="best" from="299483420#9" to="28420945#8"/>
    <trip id="veh176" type="veh_passenger" depart="134.95" departLane="best" from="-360316363#0" to="-230599371"/>
    <trip id="veh177" type="veh_passenger" depart="135.72" departLane="best" from="28420842#2" to="-319060588"/>
    <trip id="veh178" type="veh_passenger" depart="136.49" departLane="best" from="-316747952#1" to="319512093#6"/>
    <trip id="veh179" type="veh_passenger" depart="137.25" departLane="best" from="28451061#2" to="-316170714#0"/>
    <trip id="veh180" type="veh_passenger" depart="138.02" departLane="best" from="-316622211#2" to="-824755236"/>
    <trip id="veh181" type="veh_passenger" depart="138.79" departLane="best" from="-822233239" to="-316170706#0"/>
    <trip id="veh182" type="veh_passenger" depart="139.55" departLane="best" from="-28413659#7" to="-826429750"/>
    <trip id="veh183" type="veh_passenger" depart="140.32" departLane="best" from="728422515" to="28424753#15"/>
    <trip id="veh184" type="veh_passenger" depart="141.09" departLane="best" from="361388728#1" to="28413739#3"/>
    <trip id="veh185" type="veh_passenger" depart="141.85" departLane="best" from="-316171203#0" to="28186538#1"/>
    <trip id="veh186" type="veh_passenger" depart="142.62" departLane="best" from="140226539#3" to="28413646#16"/>
    <trip id="veh187" type="veh_passenger" depart="143.39" departLane="best" from="28419989#4" to="230599252#0"/>
    <trip id="veh188" type="veh_passenger" depart="144.15" departLane="best" from="193440381#1" to="-28424606#0"/>
    <trip id="veh189" type="veh_passenger" depart="144.92" departLane="best" from="230599265#0" to="367410395"/>
    <trip id="veh190" type="veh_passenger" depart="145.69" departLane="best" from="316353905#1" to="-28419858#2"/>
    <trip id="veh191" type="veh_passenger" depart="146.45" departLane="best" from="-28119664#20" to="234376524#7"/>
    <trip id="veh192" type="veh_passenger" depart="147.22" departLane="best" from="316747150#2" to="311852703#2"/>
    <trip id="veh194" type="veh_passenger" depart="148.75" departLane="best" from="-28420103#5" to="-230594213#1"/>
    <trip id="veh195" type="veh_passenger" depart="149.52" departLane="best" from="-28439212#4" to="230599269#0"/>
    <trip id="veh196" type="veh_passenger" depart="150.29" departLane="best" from="319512093#3" to="-230599376#0"/>
    <trip id="veh197" type="veh_passenger" depart="151.05" departLane="best" from="-826429726#1" to="28419868#2"/>
    <trip id="veh198" type="veh_passenger" depart="151.82" departLane="best" from="-28420016#0" to="28424924#1"/>
    <trip id="veh199" type="veh_passenger" depart="152.59" departLane="best" from="230599345#0" to="-28439212#0"/>
    <trip id="veh200" type="veh_passenger" depart="153.35" departLane="best" from="28420006#0" to="-193440376#1"/>
    <trip id="veh201" type="veh_passenger" depart="154.12" departLane="best" from="311851900#0" to="316170010#1"/>
    <trip id="veh202" type="veh_passenger" depart="154.89" departLane="best" from="-28275806#9" to="-85568387#2"/>
    <trip id="veh203" type="veh_passenger" depart="155.66" departLane="best" from="-28419907#1" to="822239686"/>
    <trip id="veh204" type="veh_passenger" depart="156.42" departLane="best" from="234376529#2" to="-230599328"/>
    <trip id="veh205" type="veh_passenger" depart="157.19" departLane="best" from="-28439239#2" to="319885593#0"/>
    <trip id="veh206" type="veh_passenger" depart="157.96" departLane="best" from="230594200#0" to="316524162#3"/>
    <trip id="veh207" type="veh_passenger" depart="158.72" departLane="best" from="28420848#5" to="85568167#2"/>
    <trip id="veh208" type="veh_passenger" depart="159.49" departLane="best" from="28413666#10" to="729085240#0"/>
    <trip id="veh209" type="veh_passenger" depart="160.26" departLane="best" from="360316365#1" to="28413725#0"/>
    <trip id="veh210" type="veh_passenger" depart="161.02" departLane="best" from="28451050#7" to="230599363#3"/>
    <trip id="veh211" type="veh_passenger" depart="161.79" departLane="best" from="360823220" to="311851894#2"/>
    <trip id="veh212" type="veh_passenger" depart="162.56" departLane="best" from="230599267#2" to="-28451253#3"/>
    <trip id="veh213" type="veh_passenger" depart="163.32" departLane="best" from="-28439232#3" to="28419908#7"/>
    <trip id="veh214" type="veh_passenger" depart="164.09" departLane="best" from="314269352#16" to="26610012#0"/>
    <trip id="veh215" type="veh_passenger" depart="164.86" departLane="best" from="28419834" to="-299483420#11"/>
    <trip id="veh216" type="veh_passenger" depart="165.62" departLane="best" from="-234376533#0" to="-311852702#0"/>
    <trip id="veh217" type="veh_passenger" depart="166.39" departLane="best" from="-28496211#4" to="-316747962"/>
    <trip id="veh218" type="veh_passenger" depart="167.16" departLane="best" from="28119664#22" to="-28413668#2"/>
    <trip id="veh219" type="veh_passenger" depart="167.92" departLane="best" from="28439197#4" to="-230599359#0"/>
    <trip id="veh220" type="veh_passenger" depart="168.69" departLane="best" from="-824755236" to="28121154#2"/>
    <trip id="veh221" type="veh_passenger" depart="169.46" departLane="best" from="-826429741" to="-28420852#3"/>
    <trip id="veh222" type="veh_passenger" depart="170.22" departLane="best" from="-8285902#0" to="387987836#2"/>
    <trip id="veh223" type="veh_passenger" depart="170.99" departLane="best" from="28413646#14" to="28424919#1"/>
    <trip id="veh224" type="veh_passenger" depart="171.76" departLane="best" from="320649150#0" to="315415082#1"/>
    <trip id="veh225" type="veh_passenger" depart="172.52" departLane="best" from="-439625377#1" to="-193440381#0"/>
    <trip id="veh226" type="veh_passenger" depart="173.29" departLane="best" from="-360279145#0" to="314269338#2"/>
    <trip id="veh227" type="veh_passenger" depart="174.06" departLane="best" from="320524129#1" to="729085243#6"/>
    <trip id="veh228" type="veh_passenger" depart="174.82" departLane="best" from="-826429748" to="311851901#0"/>
    <trip id="veh229" type="veh_passenger" depart="175.59" departLane="best" departSpeed="max" from="28121154#0" to="28413684#4"/>
    <trip id="veh230" type="veh_passenger" depart="176.36" departLane="best" from="168752556#3" to="-230599256#0"/>
    <trip id="veh231" type="veh_passenger" depart="177.12" departLane="best" from="-320649152#1" to="28424753#7"/>
    <trip id="veh232" type="veh_passenger" depart="177.89" departLane="best" from="-824731614" to="-28419852#11"/>
    <trip id="veh233" type="veh_passenger" depart="178.66" departLane="best" from="230599254" to="-28413659#7"/>
    <trip id="veh234" type="veh_passenger" depart="179.43" departLane="best" from="28419825#0" to="-230594215#3"/>
    <trip id="veh235" type="veh_passenger" depart="180.19" departLane="best" from="-230594215#3" to="28419925#4"/>
    <trip id="veh236" type="veh_passenger" depart="180.96" departLane="best" from="-28413668#1" to="230594213#0"/>
    <trip id="veh237" type="veh_passenger" depart="181.73" departLane="best" from="-230599328" to="-439625370#1"/>
    <trip id="veh238" type="veh_passenger" depart="182.49" departLane="best" from="-28420945#9" to="-319060206#2"/>
    <trip id="veh239" type="veh_passenger" depart="183.26" departLane="best" from="314269350#1" to="-439625370#1"/>
    <trip id="veh240" type="veh_passenger" depart="184.03" departLane="best" from="311851901#1" to="319060200#0"/>
    <trip id="veh241" type="veh_passenger" depart="184.79" departLane="best" from="-28451047#3" to="-28119664#0"/>
    <trip id="veh242" type="veh_passenger" depart="185.56" departLane="best" from="-230594200#7" to="28119664#29"/>
    <trip id="veh243" type="veh_passenger" depart="186.33" departLane="best" from="99778737" to="-358302725#3"/>
    <trip id="veh244" type="veh_passenger" depart="187.09" departLane="best" from="28419931#4" to="316171205#1"/>
    <trip id="veh245" type="veh_passenger" depart="187.86" departLane="best" from="28419947#4" to="314269348"/>
    <trip id="veh246" type="veh_passenger" depart="188.63" departLane="best" from="736374141" to="-28420103#4"/>
    <trip id="veh247" type="veh_passenger" depart="189.39" departLane="best" from="-230594203" to="-28413723#0"/>
    <trip id="veh248" type="veh_passenger" depart="190.16" departLane="best" from="-28413659#2" to="28420945#3"/>
    <trip id="veh249" type="veh_passenger" depart="190.93" departLane="best" from="28275806#5" to="-28424753#13"/>
    <trip id="veh250" type="veh_passenger" depart="191.69" departLane="best" from="28424919#0" to="315477291#4"/>
    <trip id="veh251" type="veh_passenger" depart="192.46" departLane="best" from="-28419852#9" to="28413689#3"/>
    <trip id="veh252" type="veh_passenger" depart="193.23" departLane="best" from="311851894#2" to="-28413611#0"/>
    <trip id="veh254" type="veh_passenger" depart="194.76" departLane="best" from="-28275817#0" to="-230594214#2"/>
    <trip id="veh255" type="veh_passenger" depart="195.53" departLane="best" from="-316747951#1" to="28424753#15"/>
    <trip id="veh256" type="veh_passenger" depart="196.29" departLane="best" from="824755237#0" to="-729016165#1"/>
    <trip id="veh257" type="veh_passenger" depart="197.06" departLane="best" from="28439278#0" to="-234376524#7"/>
    <trip id="veh258" type="veh_passenger" depart="197.83" departLane="best" from="28424798#5" to="28419854#1"/>