<?xml version="1.0" encoding="UTF-8"?>

<!-- generated on Thu Dec 24 17:38:31 2020 by Eclipse SUMO duarouter Version 1.7.0
<configuration xmlns:xsi="http://www.w3.org/2001/XMLSchema-instance" xsi:noNamespaceSchemaLocation="http://sumo.dlr.de/xsd/duarouterConfiguration.xsd">

    <input>
        <net-file value="/home/shashwath/Sumo/2020-12-24-17-38-13/osm.net.xml"/>
        <route-files value="/home/shashwath/Sumo/2020-12-24-17-38-13/osm.truck.trips.xml"/>
    </input>

    <output>
        <output-file value="/home/shashwath/Sumo/2020-12-24-17-38-13/osm.truck.trips.xml.tmp"/>
        <write-trips value="true"/>
    </output>

    <time>
        <begin value="0"/>
        <end value="3600"/>
    </time>

    <report>
        <no-warnings value="true"/>
        <ignore-errors value="true"/>
        <no-step-log value="true"/>
    </report>

</configuration>
-->

<routes xmlns:xsi="http://www.w3.org/2001/XMLSchema-instance" xsi:noNamespaceSchemaLocation="http://sumo.dlr.de/xsd/routes_file.xsd">
    <vType id="truck_truck" vClass="truck"/>
    <trip id="truck0" type="truck_truck" depart="0.00" departLane="best" from="246989087#1" to="186258453"/>
    <trip id="truck1" type="truck_truck" depart="1.68" departLane="best" from="-800669887" to="-133755117#2"/>
    <trip id="truck2" type="truck_truck" depart="3.35" departLane="best" from="-186262687#1" to="133755123"/>
    <trip id="truck3" type="truck_truck" depart="5.03" departLane="best" from="-133637887#1" to="-186254733#1"/>
    <trip id="truck4" type="truck_truck" depart="6.70" departLane="best" from="186250480#0" to="158486424#9"/>
    <trip id="truck5" type="truck_truck" depart="8.38" departLane="best" from="-186262687#11" to="171867136#2"/>
    <trip id="truck6" type="truck_truck" depart="10.05" departLane="best" from="374529120#11" to="186262688#1"/>
    <trip id="truck7" type="truck_truck" depart="11.73" departLane="best" from="-706734275#2" to="-171902839#3"/>
    <trip id="truck8" type="truck_truck" depart="13.40" departLane="best" from="803758018" to="-706734274#1"/>
    <trip id="truck9" type="truck_truck" depart="15.08" departLane="best" from="706318010" to="171870085#0"/>
    <trip id="truck10" type="truck_truck" depart="16.75" departLane="best" from="374529120#12" to="246982755#0"/>
    <trip id="truck11" type="truck_truck" depart="18.43" departLane="best" from="158486424#0" to="803758036"/>
    <trip id="truck12" type="truck_truck" depart="20.11" departLane="best" from="-800610482#0" to="171865792#12"/>
    <trip id="truck13" type="truck_truck" depart="21.78" departLane="best" from="374533523#1" to="171902839#0"/>
    <trip id="truck14" type="truck_truck" depart="23.46" departLane="best" from="713329439" to="171867128"/>
    <trip id="truck15" type="truck_truck" depart="25.13" departLane="best" from="186263438#0" to="-133755126#3"/>
    <trip id="truck16" type="truck_truck" depart="26.81" departLane="best" from="-186262687#7" to="-306475941#0"/>
    <trip id="truck17" type="truck_truck" depart="28.48" departLane="best" from="-171865792#0" to="-186262688#2"/>
    <trip id="truck18" type="truck_truck" depart="30.16" departLane="best" from="173655926#3" to="-800384383"/>
    <trip id="truck19" type="truck_truck" depart="31.83" departLane="best" from="-800384387#2" to="-186258452"/>
    <trip id="truck20" type="truck_truck" depart="33.51" departLane="best" from="-246989083#3" to="800669877"/>
    <trip id="truck21" type="truck_truck" depart="35.18" departLane="best" from="173655938#7" to="171902829#0"/>
    <trip id="truck22" type="truck_truck" depart="36.86" departLane="best" from="-173655926#4" to="246982751"/>
    <trip id="truck23" type="truck_truck" depart="38.53" departLane="best" from="-171904518" to="-800610482#1"/>
    <trip id="truck24" type="truck_truck" depart="40.21" departLane="best" from="804217356#9" to="173655932#0"/>
    <trip id="truck25" type="truck_truck" depart="41.89" departLane="best" from="171865797#0" to="186262687#0"/>
    <trip id="truck26" type="truck_truck" depart="43.56" departLane="best" from="546663980" to="306475947#1"/>
    <trip id="truck27" type="truck_truck" depart="45.24" departLane="best" from="-186262687#8" to="-133755118#0"/>
    <trip id="truck28" type="truck_truck" depart="46.91" departLane="best" from="-186258455#0" to="800669887"/>
    <trip id="truck29" type="truck_truck" depart="48.59" departLane="best" from="186250792#0" to="-800610496"/>
    <trip id="truck30" type="truck_truck" depart="50.26" departLane="best" from="800610495#1" to="-809425538"/>
    <trip id="truck31" type="truck_truck" depart="51.94" departLane="best" from="-246989083#0" to="-236471193#1"/>
    <trip id="truck32" type="truck_truck" depart="53.61" departLane="best" from="171865797#3" to="-246982755#0"/>
    <trip id="truck33" type="truck_truck" depart="55.29" departLane="best" from="171867131#2" to="800610481"/>
    <trip id="truck34" type="truck_truck" depart="56.96" departLane="best" from="-171865797#11" to="-133755126#4"/>
    <trip id="truck35" type="truck_truck" depart="58.64" departLane="best" from="-171867129" to="171902843#1"/>
    <trip id="truck36" type="truck_truck" depart="60.32" departLane="best" from="373896382#9" to="-800669888"/>
    <trip id="truck37" type="truck_truck" depart="61.99" departLane="best" from="-135530186#5" to="-800610482#3"/>
    <trip id="truck38" type="truck_truck" depart="63.67" departLane="best" from="812556708" to="135530186#10"/>
    <trip id="truck39" type="truck_truck" depart="65.34" departLane="best" from="803758035#0" to="706734276#4"/>
    <trip id="truck40" type="truck_truck" depart="67.02" departLane="best" from="-133637487#0" to="245441027#5"/>
    <trip id="truck41" type="truck_truck" depart="68.69" departLane="best" from="186258459" to="158486424#0"/>
    <trip id="truck42" type="truck_truck" depart="70.37" departLane="best" from="-246989083#3" to="173655932#1"/>
    <trip id="truck43" type="truck_truck" depart="72.04" departLane="best" from="-171867130#2" to="-803758017"/>
    <trip id="truck44" type="truck_truck" depart="73.72" departLane="best" from="-804207576" to="803758015#0"/>
    <trip id="truck45" type="truck_truck" depart="75.39" departLane="best" from="715685827" to="-246982755#1"/>
    <trip id="truck46" type="truck_truck" depart="77.07" departLane="best" from="133755118#1" to="-173655938#3"/>
    <trip id="truck47" type="truck_truck" depart="78.74" departLane="best" from="800610494" to="715685821"/>
    <trip id="truck48" type="truck_truck" depart="80.42" departLane="best" from="-306475944#1" to="173655926#7"/>
    <trip id="truck49" type="truck_truck" depart="82.10" departLane="best" from="306475942#0" to="158486424#3"/>
    <trip id="truck50" type="truck_truck" depart="83.77" departLane="best" from="306475949" to="135530186#2"/>
    <trip id="truck51" type="truck_truck" depart="85.45" departLane="best" from="-122612356#0" to="-374530997#0"/>
    <trip id="truck53" type="truck_truck" depart="88.80" departLane="best" from="800384378" to="374533524#3"/>
    <trip id="truck54" type="truck_truck" depart="90.47" departLane="best" from="-306475948" to="-133882909#3"/>
    <trip id="truck55" type="truck_truck" depart="92.15" departLane="best" from="800384377" to="803757987"/>
    <trip id="truck56" type="truck_truck" depart="93.82" departLane="best" from="-171865792#7" to="133637488"/>
    <trip id="truck57" type="truck_truck" depart="95.50" departLane="best" from="-158486424#2" to="306475941#1"/>
    <trip id="truck58" type="truck_truck" depart="97.17" departLane="best" from="306475943#1" to="-171870075#0"/>
    <trip id="truck59" type="truck_truck" depart="98.85" departLane="best" from="133055393#0" to="171865792#10"/>
    <trip id="truck60" type="truck_truck" depart="100.53" departLane="best" from="-800715313" to="-186258455#1"/>
    <trip id="truck61" type="truck_truck" depart="102.20" departLane="best" from="-186254736#1" to="-373896382#1"/>
    <trip id="truck62" type="truck_truck" depart="103.88" departLane="best" from="812556707#1" to="186250480#0"/>
    <trip id="truck63" type="truck_truck" depart="105.55" departLane="best" from="-803758021" to="133755126#6"/>
    <trip id="truck64" type="truck_truck" depart="107.23" departLane="best" from="-186262687#8" to="800610486"/>
    <trip id="truck65" type="truck_truck" depart="108.90" departLane="best" from="-186263438#0" to="186254736#3"/>
    <trip id="truck66" type="truck_truck" depart="110.58" departLane="best" from="-186258457" to="-171870081#1"/>
    <trip id="truck67" type="truck_truck" depart="112.25" departLane="best" from="800669875" to="171867126#5"/>
    <trip id="truck68" type="truck_truck" depart="113.93" departLane="best" from="-171865797#8" to="-803758014"/>
    <trip id="truck69" type="truck_truck" depart="115.60" departLane="best" from="-800715313" to="-817230302"/>
    <trip id="truck70" type="truck_truck" depart="117.28" departLane="best" from="246982751" to="186254736#8"/>
    <trip id="truck71" type="truck_truck" depart="118.95" departLane="best" from="804217356#1" to="-171867126#0"/>
    <trip id="truck72" type="truck_truck" depart="120.63" departLane="best" from="-800610509#0" to="-706734275#1"/>
    <trip id="truck73" type="truck_truck" depart="122.31" departLane="best" from="713329439" to="-236471196"/>
    <trip id="truck74" type="truck_truck" depart="123.98" departLane="best" from="-245441027#1" to="800610509#1"/>
    <trip id="truck75" type="truck_truck" depart="125.66" departLane="best" from="-803758027" to="713329439"/>
    <trip id="truck76" type="truck_truck" depart="127.33" departLane="best" from="171865792#10" to="-133755126#8"/>
    <trip id="truck78" type="truck_truck" depart="130.68" departLane="best" from="803758030" to="800610509#5"/>
    <trip id="truck79" type="truck_truck" depart="132.36" departLane="best" from="706318011" to="-171904519#2"/>
    <trip id="truck80" type="truck_truck" depart="134.03" departLane="best" from="133637488" to="-186258456"/>
    <trip id="truck81" type="truck_truck" depart="135.71" departLane="best" from="-800610502" to="-135530186#0"/>
    <trip id="truck82" type="truck_truck" depart="137.38" departLane="best" from="-800610482#0" to="804217356#11"/>
    <trip id="truck83" type="truck_truck" depart="139.06" departLane="best" from="-804207578#0" to="-800715313"/>
    <trip id="truck84" type="truck_truck" depart="140.74" departLane="best" from="803758018" to="812556707#1"/>
    <trip id="truck85" type="truck_truck" depart="142.41" departLane="best" from="171865792#8" to="245441027#2"/>
    <trip id="truck86" type="truck_truck" depart="144.09" departLane="best" from="-171902839#2" to="-306475943#2"/>
    <trip id="truck87" type="truck_truck" depart="145.76" departLane="best" from="803758029#1" to="171867130#0"/>
    <trip id="truck88" type="truck_truck" depart="147.44" departLane="best" from="158486424#6" to="288926324#3"/>
    <trip id="truck89" type="truck_truck" depart="149.11" departLane="best" from="-133882909#3" to="171867131#1"/>
    <trip id="truck90" type="truck_truck" depart="150.79" departLane="best" from="133755118#3" to="706734274#1"/>
    <trip id="truck91" type="truck_truck" depart="152.46" departLane="best" from="-171902841#0" to="803758022"/>
    <trip id="truck92" type="truck_truck" depart="154.14" departLane="best" from="-171865792#0" to="-186250480#2"/>
    <trip id="truck93" type="truck_truck" depart="155.81" departLane="best" from="171870075#1" to="186258449"/>
    <trip id="truck94" type="truck_truck" depart="157.49" departLane="best" from="800384387#5" to="-236471193#1"/>
    <trip id="truck95" type="truck_truck" depart="159.16" departLane="best" from="171870075#0" to="171902839#1"/>
    <trip id="truck96" type="truck_truck" depart="160.84" departLane="best" from="-800669884" to="171867131#1"/>
    <trip id="truck97" type="truck_truck" depart="162.52" departLane="best" from="-186254736#5" to="236471196"/>
    <trip id="truck98" type="truck_truck" depart="164.19" departLane="best" from="-373896382#2" to="290520225#1"/>
    <trip id="truck99" type="truck_truck" depart="165.87" departLane="best" from="-158486424#6" to="-804207582"/>
    <trip id="truck100" type="truck_truck" depart="167.54" departLane="best" from="817230302" to="812556708"/>
    <trip id="truck101" type="truck_truck" depart="169.22" departLane="best" from="-158486424#7" to="-186258455#2"/>
    <trip id="truck102" type="truck_truck" depart="170.89" departLane="best" from="-246989083#1" to="800669863"/>
    <trip id="truck103" type="truck_truck" depart="172.57" departLane="best" from="-800384387#2" to="-171902841#0"/>
    <trip id="truck104" type="truck_truck" depart="174.24" departLane="best" from="374533524#5" to="186263433#2"/>
    <trip id="truck105" type="truck_truck" depart="175.92" departLane="best" from="171902831#2" to="804217356#4"/>
    <trip id="truck106" type="truck_truck" depart="177.59" departLane="best" from="374530997#0" to="-306475945"/>
    <trip id="truck107" type="truck_truck" depart="179.27" departLane="best" from="186250799#0" to="800669880#1"/>
    <trip id="truck108" type="truck_truck" depart="180.95" departLane="best" from="-171870084#0" to="-171867131#2"/>
    <trip id="truck109" type="truck_truck" depart="182.62" departLane="best" from="-286438371#0" to="171870086#0"/>
    <trip id="truck110" type="truck_truck" depart="184.30" departLane="best" from="245441027#1" to="-186254736#5"/>
    <trip id="truck111" type="truck_truck" depart="185.97" departLane="best" from="173655926#1" to="-246982755#1"/>
    <trip id="truck112" type="truck_truck" depart="187.65" departLane="best" from="133637883#2" to="800610486"/>
    <trip id="truck113" type="truck_truck" depart="189.32" departLane="best" from="706318004#1" to="-171865797#3"/>
    <trip id="truck114" type="truck_truck" depart="191.00" departLane="best" from="-800715313" to="-288926324#2"/>
    <trip id="truck115" type="truck_truck" depart="192.67" departLane="best" from="-122612374#1" to="306475946#1"/>
    <trip id="truck116" type="truck_truck" depart="194.35" departLane="best" from="173655926#5" to="-246982751"/>
    <trip id="truck117" type="truck_truck" depart="196.02" departLane="best" from="246989098#1" to="171865792#12"/>
    <trip id="truck118" type="truck_truck" depart="197.70" departLane="best" from="-803757988#2" to="-133637484#3"/>
    <trip id="truck119" type="truck_truck" depart="199.38" departLane="best" from="-158486424#9" to="800384382"/>
    <trip id="truck120" type="truck_truck" depart="201.05" departLane="best" from="800610485#1" to="171865779"/>
    <trip id="truck121" type="truck_truck" depart="202.73" departLane="best" from="-171902835#2" to="-171867138#1"/>
    <trip id="truck122" type="truck_truck" depart="204.40" departLane="best" from="-306475949" to="800610482#0"/>
    <trip id="truck123" type="truck_truck" depart="206.08" departLane="best" from="374529115" to="706734276#4"/>
    <trip id="truck124" type="truck_truck" depart="207.75" departLane="best" from="800610482#0" to="-186258453"/>
    <trip id="truck125" type="truck_truck" depart="209.43" departLane="best" from="-245441027#0" to="-171867126#6"/>
    <trip id="truck126" type="truck_truck" depart="211.10" departLane="best" from="306475951" to="800384384"/>
    <trip id="truck127" type="truck_truck" depart="212.78" departLane="best" from="-800610509#4" to="171902839#2"/>
    <trip id="truck129" type="truck_truck" depart="216.13" departLane="best" from="713329445#1" to="804207577"/>
    <trip id="truck130" type="truck_truck" depart="217.80" departLane="best" from="374529120#7" to="800384381"/>
    <trip id="truck131" type="truck_truck" depart="219.48" departLane="best" from="-133637886" to="246989087#1"/>
    <trip id="truck132" type="truck_truck" depart="221.16" departLane="best" from="-706318010" to="800669860"/>
    <trip id="truck133" type="truck_truck" depart="222.83" departLane="best" from="374529118#7" to="713329445#0"/>
    <trip id="truck134" type="truck_truck" depart="224.51" departLane="best" from="374529120#7" to="-246989083#3"/>
    <trip id="truck135" type="truck_truck" depart="226.18" departLane="best" from="373896382#3" to="-171867128"/>
    <trip id="truck137" type="truck_truck" depart="229.53" departLane="best" from="-186262687#14" to="374530997#0"/>
    <trip id="truck138" type="truck_truck" depart="231.21" departLane="best" from="-809425539" to="-306475947#1"/>
    <trip id="truck139" type="truck_truck" depart="232.88" departLane="best" from="374529112#3" to="-186262687#7"/>
    <trip id="truck140" type="truck_truck" depart="234.56" departLane="best" from="-588939865" to="713329445#0"/>
    <trip id="truck141" type="truck_truck" depart="236.23" departLane="best" from="803758028" to="-288926324#4"/>
    <trip id="truck143" type="truck_truck" depart="239.59" departLane="best" from="804207589#1" to="158486424#0"/>
    <trip id="truck144" type="truck_truck" depart="241.26" departLane="best" from="800669880#1" to="-171867131#2"/>
    <trip id="truck145" type="truck_truck" depart="242.94" departLane="best" from="803758024" to="-246989083#1"/>
    <trip id="truck146" type="truck_truck" depart="244.61" departLane="best" from="-171867128" to="-803758017"/>
    <trip id="truck147" type="truck_truck" depart="246.29" departLane="best" from="246982749#2" to="-373896382#12"/>
    <trip id="truck148" type="truck_truck" depart="247.96" departLane="best" from="171870086#1" to="133755126#14"/>
    <trip id="truck149" type="truck_truck" depart="249.64" departLane="best" from="-800610486" to="171867127#3"/>
    <trip id="truck150" type="truck_truck" depart="251.31" departLane="best" from="-245441027#7" to="236471187#1"/>
    <trip id="truck151" type="truck_truck" depart="252.99" departLane="best" from="-122612356#1" to="800610509#4"/>
    <trip id="truck152" type="truck_truck" depart="254.66" departLane="best" from="158486424#2" to="245441027#4"/>
    <trip id="truck153" type="truck_truck" depart="256.34" departLane="best" from="286437949" to="186254736#5"/>
    <trip id="truck154" type="truck_truck" depart="258.01" departLane="best" from="-800384383" to="-158486424#3"/>
    <trip id="truck155" type="truck_truck" depart="259.69" departLane="best" from="-373896382#12" to="706318010"/>
    <trip id="truck156" type="truck_truck" depart="261.37" departLane="best" from="245441027#4" to="-306475946#0"/>
    <trip id="truck157" type="truck_truck" depart="263.04" departLane="best" from="-306475950" to="-800610511"/>
    <trip id="truck158" type="truck_truck" depart="264.72" departLane="best" from="-800610509#0" to="-306475943#1"/>
    <trip id="truck159" type="truck_truck" depart="266.39" departLane="best" from="800669884" to="186258455#0"/>
    <trip id="truck160" type="truck_truck" depart="268.07" departLane="best" from="800610485#0" to="171902835#3"/>
    <trip id="truck161" type="truck_truck" depart="269.74" departLane="best" from="-306475946#1" to="171865791"/>
    <trip id="truck162" type="truck_truck" depart="271.42" departLane="best" from="-122612356#0" to="-290646814"/>
    <trip id="truck164" type="truck_truck" depart="274.77" departLane="best" from="186250480#5" to="-812556708"/>
    <trip id="truck165" type="truck_truck" depart="276.44" departLane="best" from="-803758026#1" to="-186258456"/>
    <trip id="truck166" type="truck_truck" depart="278.12" departLane="best" from="122612374#3" to="800610482#3"/>
    <trip id="truck167" type="truck_truck" depart="279.80" departLane="best" from="374529115" to="-173655926#3"/>
    <trip id="truck168" type="truck_truck" depart="281.47" departLane="best" from="-171865792#5" to="133755126#3"/>
    <trip id="truck170" type="truck_truck" depart="284.82" departLane="best" from="374532416#1" to="290520225#1"/>
    <trip id="truck171" type="truck_truck" depart="286.50" departLane="best" from="186254736#8" to="-186262687#2"/>
    <trip id="truck172" type="truck_truck" depart="288.17" departLane="best" from="-186254734" to="-133637886"/>
    <trip id="truck173" type="truck_truck" depart="289.85" departLane="best" from="-236471192#0" to="133055393#0"/>
    <trip id="truck175" type="truck_truck" depart="293.20" departLane="best" from="-800669875" to="171904518"/>
    <trip id="truck176" type="truck_truck" depart="294.87" departLane="best" from="-186250797#0" to="186262687#9"/>
    <trip id="truck177" type="truck_truck" depart="296.55" departLane="best" from="133637887#1" to="-236471188#1"/>
    <trip id="truck178" type="truck_truck" depart="298.22" departLane="best" from="186250792#1" to="-122612374#4"/>
    <trip id="truck179" type="truck_truck" depart="299.90" departLane="best" from="290520225#0" to="306475946#0"/>
    <trip id="truck180" type="truck_truck" depart="301.58" departLane="best" from="-171867127#2" to="-803757987"/>
    <trip id="truck181" type="truck_truck" depart="303.25" departLane="best" from="-173655938#0" to="803758018"/>
    <trip id="truck182" type="truck_truck" depart="304.93" departLane="best" from="-245441027#0" to="706318010"/>
    <trip id="truck183" type="truck_truck" depart="306.60" departLane="best" from="-804207578#1" to="374529118#6"/>
    <trip id="truck184" type="truck_truck" depart="308.28" departLane="best" from="171870075#1" to="803757988#2"/>
    <trip id="truck185" type="truck_truck" depart="309.95" departLane="best" from="245441027#4" to="133755118#5"/>
    <trip id="truck186" type="truck_truck" depart="311.63" departLane="best" from="374533524#2" to="171865791"/>
    <trip id="truck187" type="truck_truck" depart="313.30" departLane="best" from="800610480" to="286438371#1"/>
    <trip id="truck188" type="truck_truck" depart="314.98" departLane="best" from="-236471195#0" to="173655926#5"/>
    <trip id="truck189" type="truck_truck" depart="316.65" departLane="best" from="171902843#0" to="-286438372"/>
    <trip id="truck190" type="truck_truck" depart="318.33" departLane="best" from="-171865787" to="-290646813"/>
    <trip id="truck191" type="truck_truck" depart="320.01" departLane="best" from="-286437949" to="-373896382#7"/>
    <trip id="truck192" type="truck_truck" depart="321.68" departLane="best" from="186276679#0" to="-135530186#6"/>
    <trip id="truck193" type="truck_truck" depart="323.36" departLane="best" from="-800610510" to="158486424#7"/>
    <trip id="truck194" type="truck_truck" depart="325.03" departLane="best" from="-800669878" to="-186254736#8"/>
    <trip id="truck195" type="truck_truck" depart="326.71" departLane="best" from="706734275#3" to="306475943#1"/>
    <trip id="truck196" type="truck_truck" depart="328.38" departLane="best" from="-800610482#2" to="-122612374#4"/>
    <trip id="truck197" type="truck_truck" depart="330.06" departLane="best" from="-713329449" to="290520227"/>
    <trip id="truck198" type="truck_truck" depart="331.73" departLane="best" from="706734274#2" to="803758014"/>
    <trip id="truck199" type="truck_truck" depart="333.41" departLane="best" from="-800669884" to="288926324#2"/>
    <trip id="truck200" type="truck_truck" depart="335.08" departLane="best" from="171865787" to="171870085#0"/>
    <trip id="truck201" type="truck_truck" depart="336.76" departLane="best" from="-803758018" to="-133755117#1"/>
    <trip id="truck202" type="truck_truck" depart="338.43" departLane="best" from="-706734274#0" to="186258455#2"/>
    <trip id="truck203" type="truck_truck" depart="340.11" departLane="best" from="-800610509#2" to="-171904519#1"/>
    <trip id="truck204" type="truck_truck" depart="341.79" departLane="best" from="-817230302" to="-171870075#0"/>
    <trip id="truck205" type="truck_truck" depart="343.46" departLane="best" from="171902839#4" to="-133637887#2"/>
    <trip id="truck206" type="truck_truck" depart="345.14" departLane="best" from="-800610495#0" to="171865797#6"/>
    <trip id="truck207" type="truck_truck" depart="346.81" departLane="best" from="-133637887#2" to="173655938#1"/>
    <trip id="truck208" type="truck_truck" depart="348.49" departLane="best" from="-171870084#2" to="-810367889"/>
    <trip id="truck209" type="truck_truck" depart="350.16" departLane="best" from="-133755126#8" to="-800610482#0"/>
    <trip id="truck210" type="truck_truck" depart="351.84" departLane="best" from="-186258455#1" to="-546663980"/>
    <trip id="truck211" type="truck_truck" depart="353.51" departLane="best" from="306475941#2" to="-800610482#1"/>
    <trip id="truck212" type="truck_truck" depart="355.19" departLane="best" from="290520225#2" to="374533524#3"/>
    <trip id="truck213" type="truck_truck" depart="356.86" departLane="best" from="-245441027#4" to="-171865792#11"/>
    <trip id="truck214" type="truck_truck" depart="358.54" departLane="best" from="-133637883#1" to="158486424#3"/>
    <trip id="truck216" type="truck_truck" depart="361.89" departLane="best" from="186250480#0" to="373896382#0"/>
    <trip id="truck217" type="truck_truck" depart="363.57" departLane="best" from="186250480#2" to="290646812#0"/>
    <trip id="truck218" type="truck_truck" depart="365.24" departLane="best" from="-133637883#2" to="-171902837#1"/>
    <trip id="truck219" type="truck_truck" depart="366.92" departLane="best" from="-171867138#0" to="186254736#4"/>
    <trip id="truck220" type="truck_truck" depart="368.59" departLane="best" from="171865797#6" to="-186262687#0"/>
    <trip id="truck221" type="truck_truck" depart="370.27" departLane="best" from="186263426#0" to="306475943#2"/>
    <trip id="truck222" type="truck_truck" depart="371.94" departLane="best" from="-173655926#1" to="171870086#2"/>
    <trip id="truck223" type="truck_truck" depart="373.62" departLane="best" from="374532416#10" to="803758026#1"/>
    <trip id="truck224" type="truck_truck" depart="375.29" departLane="best" from="-171867128" to="-133637887#0"/>
    <trip id="truck225" type="truck_truck" depart="376.97" departLane="best" from="-373896382#1" to="186258455#0"/>
    <trip id="truck226" type="truck_truck" depart="378.64" departLane="best" from="803758019" to="-800610497"/>
    <trip id="truck227" type="truck_truck" depart="380.32" departLane="best" from="236471195#1" to="-171865779"/>
    <trip id="truck228" type="truck_truck" depart="382.00" departLane="best" from="-171867126#5" to="306475946#2"/>
    <trip id="truck230" type="truck_truck" depart="385.35" departLane="best" from="-171867136#1" to="804207591#5"/>
    <trip id="truck231" type="truck_truck" depart="387.02" departLane="best" from="373896382#10" to="-713329444#1"/>
    <trip id="truck232" type="truck_truck" depart="388.70" departLane="best" from="-803757990" to="-800384387#3"/>
    <trip id="truck233" type="truck_truck" depart="390.37" departLane="best" from="133755124" to="-706734275#3"/>
    <trip id="truck235" type="truck_truck" depart="393.72" departLane="best" from="-171867127#1" to="803758022"/>
    <trip id="truck236" type="truck_truck" depart="395.40" departLane="best" from="173655926#3" to="374533523#0"/>
    <trip id="truck237" type="truck_truck" depart="397.07" departLane="best" from="186276679#1" to="-803758018"/>
    <trip id="truck238" type="truck_truck" depart="398.75" departLane="best" from="246989083#2" to="803758027"/>
    <trip id="truck239" type="truck_truck" depart="400.43" departLane="best" from="-246989092#1" to="374529120#3"/>
    <trip id="truck240" type="truck_truck" depart="402.10" departLane="best" from="158486424#2" to="133637487#4"/>
    <trip id="truck241" type="truck_truck" depart="403.78" departLane="best" from="-803758018" to="246982755#1"/>
    <trip id="truck242" type="truck_truck" depart="405.45" departLane="best" from="-246989087#0" to="706734274#0"/>
    <trip id="truck243" type="truck_truck" depart="407.13" departLane="best" from="374533524#2" to="-171865792#8"/>
    <trip id="truck244" type="truck_truck" depart="408.80" departLane="best" from="800384381" to="-236471188#1"/>
    <trip id="truck245" type="truck_truck" depart="410.48" departLane="best" from="-812556707#1" to="171902831#0"/>
    <trip id="truck246" type="truck_truck" depart="412.15" departLane="best" from="-800610482#0" to="-133755117#1"/>
    <trip id="truck248" type="truck_truck" depart="415.50" departLane="best" from="-186258455#1" to="374529118#2"/>
    <trip id="truck249" type="truck_truck" depart="417.18" departLane="best" from="-133637485" to="803757988#0"/>
    <trip id="truck250" type="truck_truck" depart="418.86" departLane="best" from="-171865792#5" to="245441027#5"/>
    <trip id="truck251" type="truck_truck" depart="420.53" departLane="best" from="133637883#2" to="306475940#0"/>
    <trip id="truck252" type="truck_truck" depart="422.21" departLane="best" from="186262687#2" to="173655938#5"/>
    <trip id="truck253" type="truck_truck" depart="423.88" departLane="best" from="133637884" to="374529112#0"/>
    <trip id="truck254" type="truck_truck" depart="425.56" departLane="best" from="-171865797#4" to="-186262687#12"/>
    <trip id="truck255" type="truck_truck" depart="427.23" departLane="best" from="186262687#4" to="-306475947#2"/>
    <trip id="truck256" type="truck_truck" depart="428.91" departLane="best" from="171867130#2" to="122612374#3"/>
    <trip id="truck257" type="truck_truck" depart="430.58" departLane="best" from="135530186#3" to="-803757987"/>
    <trip id="truck258" type="truck_truck" depart="432.26" departLane="best" from="288926324#1" to="-706318004#1"/>
    <trip id="truck259" type="truck_truck" depart="433.93" departLane="best" from="186263433#1" to="-246989098#0"/>
    <trip id="truck260" type="truck_truck" depart="435.61" departLane="best" from="-245441027#2" to="-171867136#1"/>
    <trip id="truck261" type="truck_truck" depart="437.28" departLane="best" from="-186250795" to="-171867136#0"/>
    <trip id="truck262" type="truck_truck" depart="438.96" departLane="best" from="135530186#8" to="306475942#0"/>
    <trip id="truck263" type="truck_truck" depart="440.64" departLane="best" from="-186250480#1" to="-186258462#0"/>
    <trip id="truck264" type="truck_truck" depart="442.31" departLane="best" from="133637487#4" to="245441809#0"/>