<?xml version="1.0" encoding="UTF-8"?>
<!-- generated on 2020-12-24 17:38:28.942991 by osmWebWizard.py v1_7_0+0000-714814baed
  options: 
-->
<routes xmlns:xsi="http://www.w3.org/2001/XMLSchema-instance" xsi:noNamespaceSchemaLocation="http://sumo.dlr.de/xsd/routes_file.xsd">
    <vType id="ped_pedestrian" vClass="pedestrian"/>
    <person id="ped0" depart="0.00" type="ped_pedestrian">
        <personTrip from="171902842#0" to="-133637887#0" modes="public"/>
    </person>
    <person id="ped1" depart="1.46" type="ped_pedestrian">
        <personTrip from="-246989083#1" to="-186262687#1" modes="public"/>
    </person>
    <person id="ped2" depart="2.91" type="ped_pedestrian">
        <personTrip from="236471195#0" to="186250798" modes="public"/>
    </person>
    <person id="ped3" depart="4.37" type="ped_pedestrian">
        <personTrip from="800610482#0" to="-171865792#3" modes="public"/>
    </person>
    <person id="ped4" depart="5.82" type="ped_pedestrian">
        <personTrip from="-800669875" to="-133755117#2" modes="public"/>
    </person>
    <person id="ped5" depart="7.28" type="ped_pedestrian">
        <personTrip from="-186258462#1" to="133637887#0" modes="public"/>
    </person>
    <person id="ped6" depart="8.73" type="ped_pedestrian">
        <personTrip from="-133637887#1" to="-186250799#0" modes="public"/>
    </person>
    <person id="ped7" depart="10.19" type="ped_pedestrian">
        <personTrip from="173655926#3" to="135530186#2" modes="public"/>
    </person>
    <person id="ped8" depart="11.64" type="ped_pedestrian">
        <personTrip from="-186258773#1" to="171867127#1" modes="public"/>
    </person>
    <person id="ped9" depart="13.10" type="ped_pedestrian">
        <personTrip from="374529123#1" to="-133637484#0" modes="public"/>
    </person>
    <person id="ped10" depart="14.55" type="ped_pedestrian">
        <personTrip from="306475951" to="186258773#0" modes="public"/>
    </person>
    <person id="ped11" depart="16.01" type="ped_pedestrian">
        <personTrip from="-706318012" to="-171902839#1" modes="public"/>
    </person>
    <person id="ped12" depart="17.46" type="ped_pedestrian">
        <personTrip from="803758021" to="-706318005" modes="public"/>
    </person>
    <person id="ped13" depart="18.92" type="ped_pedestrian">
        <personTrip from="-171865797#11" to="-171865797#5" modes="public"/>
    </person>
    <person id="ped14" depart="20.37" type="ped_pedestrian">
        <personTrip from="706734275#3" to="171867136#2" modes="public"/>
    </person>
    <person id="ped15" depart="21.83" type="ped_pedestrian">
        <personTrip from="364433566" to="236471188#1" modes="public"/>
    </person>
    <person id="ped16" depart="23.28" type="ped_pedestrian">
        <personTrip from="133755133#0" to="804207575" modes="public"/>
    </person>
    <person id="ped17" depart="24.74" type="ped_pedestrian">
        <personTrip from="-800384387#5" to="158486424#1" modes="public"/>
    </person>
    <person id="ped18" depart="26.19" type="ped_pedestrian">
        <personTrip from="706173405#0" to="171870085#1" modes="public"/>
    </person>
    <person id="ped19" depart="27.65" type="ped_pedestrian">
        <personTrip from="714381033" to="171865797#5" modes="public"/>
    </person>
    <person id="ped20" depart="29.10" type="ped_pedestrian">
        <personTrip from="186262687#12" to="-133755126#3" modes="public"/>
    </person>
    <person id="ped21" depart="30.56" type="ped_pedestrian">
        <personTrip from="-186262687#15" to="-288926324#5" modes="public"/>
    </person>
    <person id="ped22" depart="32.01" type="ped_pedestrian">
        <personTrip from="-171865787" to="-186262687#8" modes="public"/>
    </person>
    <person id="ped23" depart="33.47" type="ped_pedestrian">
        <personTrip from="-171867126#0" to="-246989087#0" modes="public"/>
    </person>
    <person id="ped24" depart="34.92" type="ped_pedestrian">
        <personTrip from="171902839#3" to="-715685827" modes="public"/>
    </person>
    <person id="ped25" depart="36.38" type="ped_pedestrian">
        <personTrip from="-800384381" to="-186254736#9" modes="public"/>
    </person>
    <person id="ped26" depart="37.83" type="ped_pedestrian">
        <personTrip from="-245441809#1" to="800669882" modes="public"/>
    </person>
    <person id="ped27" depart="39.29" type="ped_pedestrian">
        <personTrip from="173655926#1" to="171870075#0" modes="public"/>
    </person>
    <person id="ped28" depart="40.74" type="ped_pedestrian">
        <personTrip from="-173655926#2" to="236471188#0" modes="public"/>
    </person>
    <person id="ped29" depart="42.20" type="ped_pedestrian">
        <personTrip from="-171902843#0" to="-800384388" modes="public"/>
    </person>
    <person id="ped30" depart="43.65" type="ped_pedestrian">
        <personTrip from="809425539" to="171902842#1" modes="public"/>
    </person>
    <person id="ped31" depart="45.11" type="ped_pedestrian">
        <personTrip from="158486424#7" to="186254736#5" modes="public"/>
    </person>
    <person id="ped32" depart="46.56" type="ped_pedestrian">
        <personTrip from="706734274#1" to="290520225#2" modes="public"/>
    </person>
    <person id="ped33" depart="48.02" type="ped_pedestrian">
        <personTrip from="-186262687#2" to="-133755118#1" modes="public"/>
    </person>
    <person id="ped34" depart="49.47" type="ped_pedestrian">
        <personTrip from="-306475947#2" to="-246982749#0" modes="public"/>
    </person>
    <person id="ped35" depart="50.93" type="ped_pedestrian">
        <personTrip from="-186258452" to="800715314" modes="public"/>
    </person>
    <person id="ped36" depart="52.38" type="ped_pedestrian">
        <personTrip from="800384382" to="-306475947#1" modes="public"/>
    </person>
    <person id="ped37" depart="53.84" type="ped_pedestrian">
        <personTrip from="173655938#0" to="-800610489" modes="public"/>
    </person>
    <person id="ped38" depart="55.29" type="ped_pedestrian">
        <personTrip from="800610503" to="-803758032" modes="public"/>
    </person>
    <person id="ped39" depart="56.75" type="ped_pedestrian">
        <personTrip from="-245441030" to="-236471187#0" modes="public"/>
    </person>
    <person id="ped40" depart="58.20" type="ped_pedestrian">
        <personTrip from="171865789" to="-245441027#6" modes="public"/>
    </person>
    <person id="ped41" depart="59.66" type="ped_pedestrian">
        <personTrip from="171867126#4" to="800610485#1" modes="public"/>
    </person>
    <person id="ped42" depart="61.11" type="ped_pedestrian">
        <personTrip from="-800610493" to="-186258462#1" modes="public"/>
    </person>
    <person id="ped43" depart="62.57" type="ped_pedestrian">
        <personTrip from="817230302" to="133755117#1" modes="public"/>
    </person>
    <person id="ped44" depart="64.02" type="ped_pedestrian">
        <personTrip from="-171865797#1" to="-133755126#5" modes="public"/>
    </person>
    <person id="ped45" depart="65.48" type="ped_pedestrian">
        <personTrip from="-171867127#3" to="171902835#1" modes="public"/>
    </person>
    <person id="ped46" depart="66.93" type="ped_pedestrian">
        <personTrip from="306475943#1" to="-800669875" modes="public"/>
    </person>
    <person id="ped47" depart="68.39" type="ped_pedestrian">
        <personTrip from="-135530186#2" to="-800384390#0" modes="public"/>
    </person>
    <person id="ped48" depart="69.84" type="ped_pedestrian">
        <personTrip from="812556709" to="133755126#5" modes="public"/>
    </person>
    <person id="ped49" depart="71.30" type="ped_pedestrian">
        <personTrip from="803758037" to="713329448" modes="public"/>
    </person>
    <person id="ped50" depart="72.76" type="ped_pedestrian">
        <personTrip from="-133637487#0" to="186263433#0" modes="public"/>
    </person>
    <person id="ped51" depart="74.21" type="ped_pedestrian">
        <personTrip from="186254736#1" to="133755133#1" modes="public"/>
    </person>
    <person id="ped52" depart="75.67" type="ped_pedestrian">
        <personTrip from="-245441809#1" to="171902843#0" modes="public"/>
    </person>
    <person id="ped53" depart="77.12" type="ped_pedestrian">
        <personTrip from="-171867129" to="-800715314" modes="public"/>
    </person>
    <person id="ped54" depart="78.58" type="ped_pedestrian">
        <personTrip from="-803758026#1" to="803758017" modes="public"/>
    </person>
    <person id="ped55" depart="80.03" type="ped_pedestrian">
        <personTrip from="800384382" to="-245441027#7" modes="public"/>
    </person>
    <person id="ped56" depart="81.49" type="ped_pedestrian">
        <personTrip from="133637883#2" to="-173655938#1" modes="public"/>
    </person>
    <person id="ped57" depart="82.94" type="ped_pedestrian">
        <personTrip from="800610501" to="800384376" modes="public"/>
    </person>
    <person id="ped58" depart="84.40" type="ped_pedestrian">
        <personTrip from="-306475941#0" to="171902842#0" modes="public"/>
    </person>
    <person id="ped59" depart="85.85" type="ped_pedestrian">
        <personTrip from="171870075#0" to="-171902837#0" modes="public"/>
    </person>
    <person id="ped60" depart="87.31" type="ped_pedestrian">
        <personTrip from="246989092#1" to="133882909#1" modes="public"/>
    </person>
    <person id="ped61" depart="88.76" type="ped_pedestrian">
        <personTrip from="290625965" to="133755126#7" modes="public"/>
    </person>
    <person id="ped62" depart="90.22" type="ped_pedestrian">
        <personTrip from="-122612356#0" to="-374530997#1" modes="public"/>
    </person>
    <person id="ped63" depart="91.67" type="ped_pedestrian">
        <personTrip from="-133637883#1" to="800669875" modes="public"/>
    </person>
    <person id="ped64" depart="93.13" type="ped_pedestrian">
        <personTrip from="800384385" to="706318004#0" modes="public"/>
    </person>
    <person id="ped65" depart="94.58" type="ped_pedestrian">
        <personTrip from="-306475944#1" to="-133882909#1" modes="public"/>
    </person>
    <person id="ped66" depart="96.04" type="ped_pedestrian">
        <personTrip from="800384384" to="803757990" modes="public"/>
    </person>
    <person id="ped67" depart="97.49" type="ped_pedestrian">
        <personTrip from="-171865792#2" to="122612374#2" modes="public"/>
    </person>
    <person id="ped68" depart="98.95" type="ped_pedestrian">
        <personTrip from="-135530186#8" to="246989090" modes="public"/>
    </person>
    <person id="ped69" depart="100.40" type="ped_pedestrian">
        <personTrip from="286438371#0" to="-171867138#0" modes="public"/>
    </person>
    <person id="ped70" depart="101.86" type="ped_pedestrian">
        <personTrip from="-812556705" to="135530186#8" modes="public"/>
    </person>
    <person id="ped71" depart="103.31" type="ped_pedestrian">
        <personTrip from="-245441030" to="800384378" modes="public"/>
    </person>
    <person id="ped72" depart="104.77" type="ped_pedestrian">
        <personTrip from="-800669876" to="-186258453" modes="public"/>
    </person>
    <person id="ped73" depart="106.22" type="ped_pedestrian">
        <personTrip from="133882909#1" to="236471188#1" modes="public"/>
    </person>
    <person id="ped74" depart="107.68" type="ped_pedestrian">
        <personTrip from="-186254734" to="-306475946#2" modes="public"/>
    </person>
    <person id="ped75" depart="109.13" type="ped_pedestrian">
        <personTrip from="812556708" to="173655926#3" modes="public"/>
    </person>
    <person id="ped76" depart="110.59" type="ped_pedestrian">
        <personTrip from="-803757988#2" to="133755123" modes="public"/>
    </person>
    <person id="ped77" depart="112.04" type="ped_pedestrian">
        <personTrip from="-171867135#1" to="-186262687#11" modes="public"/>
    </person>
    <person id="ped78" depart="113.50" type="ped_pedestrian">
        <personTrip from="-706318007" to="171867127#0" modes="public"/>
    </person>
    <person id="ped79" depart="114.95" type="ped_pedestrian">
        <personTrip from="-186262687#5" to="-186258773#0" modes="public"/>
    </person>
    <person id="ped80" depart="116.41" type="ped_pedestrian">
        <personTrip from="-158486424#1" to="171902837#0" modes="public"/>
    </person>
    <person id="ped81" depart="117.86" type="ped_pedestrian">
        <personTrip from="-186262687#2" to="800610493" modes="public"/>
    </person>
    <person id="ped82" depart="119.32" type="ped_pedestrian">
        <personTrip from="713329445#2" to="-158486424#1" modes="public"/>
    </person>
    <person id="ped83" depart="120.77" type="ped_pedestrian">
        <personTrip from="-186262693" to="186250792#0" modes="public"/>
    </person>
    <person id="ped84" depart="122.23" type="ped_pedestrian">
        <personTrip from="-186258455#2" to="-171870076#0" modes="public"/>
    </person>
    <person id="ped85" depart="123.68" type="ped_pedestrian">
        <personTrip from="800669881" to="171865792#8" modes="public"/>
    </person>
    <person id="ped86" depart="125.14" type="ped_pedestrian">
        <personTrip from="-810367888" to="306475940#1" modes="public"/>
    </person>
    <person id="ped87" depart="126.59" type="ped_pedestrian">
        <personTrip from="374529115" to="-186250480#5" modes="public"/>
    </person>
    <person id="ped88" depart="128.05" type="ped_pedestrian">
        <personTrip from="-171865797#6" to="-800669886" modes="public"/>
    </person>
    <person id="ped89" depart="129.50" type="ped_pedestrian">
        <personTrip from="-800669876" to="-804207578#0" modes="public"/>
    </person>
    <person id="ped90" depart="130.96" type="ped_pedestrian">
        <personTrip from="236471188#0" to="186250796" modes="public"/>
    </person>
    <person id="ped91" depart="132.41" type="ped_pedestrian">
        <personTrip from="804217356#4" to="-171865797#7" modes="public"/>
    </person>
    <person id="ped92" depart="133.87" type="ped_pedestrian">
        <personTrip from="-800610496" to="-706318011" modes="public"/>
    </person>
    <person id="ped93" depart="135.32" type="ped_pedestrian">
        <personTrip from="714381033" to="-236471188#0" modes="public"/>
    </person>
    <person id="ped94" depart="136.78" type="ped_pedestrian">
        <personTrip from="-186250480#5" to="-803758021" modes="public"/>
    </person>
    <person id="ped95" depart="138.23" type="ped_pedestrian">
        <personTrip from="-800669875" to="-246989092#0" modes="public"/>
    </person>
    <person id="ped96" depart="139.69" type="ped_pedestrian">
        <personTrip from="-236471189" to="800669859" modes="public"/>
    </person>
    <person id="ped97" depart="141.14" type="ped_pedestrian">
        <personTrip from="-803758015#0" to="713329448" modes="public"/>
    </person>
    <person id="ped98" depart="142.60" type="ped_pedestrian">
        <personTrip from="135530186#8" to="-133755126#8" modes="public"/>
    </person>
    <person id="ped99" depart="144.06" type="ped_pedestrian">
        <personTrip from="817230304" to="706318010" modes="public"/>
    </person>
    <person id="ped100" depart="145.51" type="ped_pedestrian">
        <personTrip from="803758035#1" to="800669863" modes="public"/>
    </person>
    <person id="ped101" depart="146.97" type="ped_pedestrian">
        <personTrip from="706734276#1" to="-171904519#0" modes="public"/>
    </person>
    <person id="ped102" depart="148.42" type="ped_pedestrian">
        <personTrip from="122612374#1" to="-186258455#1" modes="public"/>
    </person>
    <person id="ped103" depart="149.88" type="ped_pedestrian">
        <personTrip from="-800610495#0" to="-133882909#2" modes="public"/>
    </person>
    <person id="ped104" depart="151.33" type="ped_pedestrian">
        <personTrip from="-800384387#5" to="804217356#6" modes="public"/>
    </person>
    <person id="ped105" depart="152.79" type="ped_pedestrian">
        <personTrip from="-245441030" to="306475940#0" modes="public"/>
    </person>
    <person id="ped106" depart="154.24" type="ped_pedestrian">
        <personTrip from="-803758028" to="-800669876" modes="public"/>
    </person>
    <person id="ped107" depart="155.70" type="ped_pedestrian">
        <personTrip from="803758021" to="812556708" modes="public"/>
    </person>
    <person id="ped108" depart="157.15" type="ped_pedestrian">
        <personTrip from="158486424#5" to="186262700#1" modes="public"/>
    </person>
    <person id="ped109" depart="158.61" type="ped_pedestrian">
        <personTrip from="-171902839#0" to="-306475940#0" modes="public"/>
    </person>
    <person id="ped110" depart="160.06" type="ped_pedestrian">
        <personTrip from="803758035#0" to="171865797#7" modes="public"/>
    </person>
    <person id="ped111" depart="161.52" type="ped_pedestrian">
        <personTrip from="135530186#0" to="245441809#1" modes="public"/>
    </person>
    <person id="ped112" depart="162.97" type="ped_pedestrian">
        <personTrip from="-133882909#0" to="171867126#2" modes="public"/>
    </person>
    <person id="ped113" depart="164.43" type="ped_pedestrian">
        <personTrip from="133637884" to="713329440" modes="public"/>
    </person>
    <person id="ped114" depart="165.88" type="ped_pedestrian">
        <personTrip from="-171902839#3" to="803758025#0" modes="public"/>
    </person>
    <person id="ped115" depart="167.34" type="ped_pedestrian">
        <personTrip from="-171865789" to="-186250480#0" modes="public"/>
    </person>
    <person id="ped116" depart="168.79" type="ped_pedestrian">
        <personTrip from="171867130#2" to="186250797#1" modes="public"/>
    </person>
    <person id="ped117" depart="170.25" type="ped_pedestrian">
        <personTrip from="-186262688#0" to="-171867133" modes="public"/>
    </person>
    <person id="ped118" depart="171.70" type="ped_pedestrian">
        <personTrip from="800610480" to="-236471187#0" modes="public"/>
    </person>
    <person id="ped119" depart="173.16" type="ped_pedestrian">
        <personTrip from="171867130#1" to="171870086#0" modes="public"/>
    </person>
    <person id="ped120" depart="174.61" type="ped_pedestrian">
        <personTrip from="-800669862" to="171867126#2" modes="public"/>
    </person>
    <person id="ped121" depart="176.07" type="ped_pedestrian">
        <personTrip from="133755126#13" to="800669880#1" modes="public"/>
    </person>
    <person id="ped122" depart="177.52" type="ped_pedestrian">
        <personTrip from="-186254736#3" to="186262693" modes="public"/>
    </person>
    <person id="ped123" depart="178.98" type="ped_pedestrian">
        <personTrip from="-186263426#0" to="-800610489" modes="public"/>
    </person>
    <person id="ped124" depart="180.43" type="ped_pedestrian">
        <personTrip from="186250794#1" to="-306475941#1" modes="public"/>
    </person>
    <person id="ped125" depart="181.89" type="ped_pedestrian">
        <personTrip from="-306475948" to="246982751" modes="public"/>
    </person>
    <person id="ped126" depart="183.34" type="ped_pedestrian">
        <personTrip from="-158486424#3" to="-803758032" modes="public"/>
    </person>
    <person id="ped127" depart="184.80" type="ped_pedestrian">
        <personTrip from="817230303" to="812556709" modes="public"/>
    </person>
    <person id="ped128" depart="186.25" type="ped_pedestrian">
        <personTrip from="-158486424#4" to="-186258455#1" modes="public"/>
    </person>
    <person id="ped129" depart="187.71" type="ped_pedestrian">
        <personTrip from="-245441030" to="800669879" modes="public"/>
    </person>
    <person id="ped130" depart="189.16" type="ped_pedestrian">
        <personTrip from="800384387#0" to="800384386" modes="public"/>
    </person>
    <person id="ped131" depart="190.62" type="ped_pedestrian">
        <personTrip from="-800384381" to="-171902839#3" modes="public"/>
    </person>
    <person id="ped132" depart="192.07" type="ped_pedestrian">
        <personTrip from="706318005" to="186262687#11" modes="public"/>
    </person>
    <person id="ped133" depart="193.53" type="ped_pedestrian">
        <personTrip from="171870076#1" to="804217356#9" modes="public"/>
    </person>
    <person id="ped134" depart="194.98" type="ped_pedestrian">
        <personTrip from="173655932#0" to="-133637484#1" modes="public"/>
    </person>
    <person id="ped135" depart="196.44" type="ped_pedestrian">
        <personTrip from="543879349#1" to="-306475941#1" modes="public"/>
    </person>
    <person id="ped136" depart="197.89" type="ped_pedestrian">
        <personTrip from="173655938#8" to="800669886" modes="public"/>
    </person>
    <person id="ped137" depart="199.35" type="ped_pedestrian">
        <personTrip from="-171870081#1" to="-171867130#3" modes="public"/>
    </person>
    <person id="ped138" depart="200.80" type="ped_pedestrian">
        <personTrip from="-171867127#0" to="158486424#2" modes="public"/>
    </person>
    <person id="ped139" depart="202.26" type="ped_pedestrian">
        <personTrip from="-246982755#1" to="171867136#4" modes="public"/>
    </person>
    <person id="ped140" depart="203.71" type="ped_pedestrian">
        <personTrip from="186262700#1" to="-186254736#3" modes="public"/>
    </person>
    <person id="ped141" depart="205.17" type="ped_pedestrian">
        <personTrip from="171902839#2" to="-245441027#8" modes="public"/>
    </person>
    <person id="ped142" depart="206.62" type="ped_pedestrian">
        <personTrip from="133637484#1" to="800610493" modes="public"/>
    </person>
    <person id="ped143" depart="208.08" type="ped_pedestrian">
        <personTrip from="706734275#1" to="-171865797#10" modes="public"/>
    </person>
    <person id="ped144" depart="209.53" type="ped_pedestrian">
        <personTrip from="-800669876" to="-246989083#3" modes="public"/>
    </person>
    <person id="ped145" depart="210.99" type="ped_pedestrian">
        <personTrip from="-122612374#1" to="288926324#3" modes="public"/>
    </person>
    <person id="ped146" depart="212.44" type="ped_pedestrian">
        <personTrip from="171902841#0" to="-245441027#5" modes="public"/>
    </person>
    <person id="ped147" depart="213.90" type="ped_pedestrian">
        <personTrip from="245441027#2" to="158486424#1" modes="public"/>
    </person>
    <person id="ped148" depart="215.36" type="ped_pedestrian">
        <personTrip from="-800669881" to="-133637484#3" modes="public"/>
    </person>
    <person id="ped149" depart="216.81" type="ped_pedestrian">
        <personTrip from="-158486424#6" to="800384387#3" modes="public"/>
    </person>
    <person id="ped150" depart="218.27" type="ped_pedestrian">
        <personTrip from="800610492#0" to="135530186#3" modes="public"/>
    </person>
    <person id="ped151" depart="219.72" type="ped_pedestrian">
        <personTrip from="706318006" to="171867126#0" modes="public"/>
    </person>
    <person id="ped152" depart="221.18" type="ped_pedestrian">
        <personTrip from="-171902831#2" to="-171867137#1" modes="public"/>
    </person>
    <person id="ped153" depart="222.63" type="ped_pedestrian">
        <personTrip from="-306475945" to="800610487#0" modes="public"/>
    </person>
    <person id="ped154" depart="224.09" type="ped_pedestrian">
        <personTrip from="306475946#0" to="713329448" modes="public"/>
    </person>
    <person id="ped155" depart="225.54" type="ped_pedestrian">
        <personTrip from="800610487#0" to="-186258449" modes="public"/>
    </person>
    <person id="ped156" depart="227.00" type="ped_pedestrian">
        <personTrip from="-236471188#1" to="-171867126#2" modes="public"/>
    </person>
    <person id="ped157" depart="228.45" type="ped_pedestrian">
        <personTrip from="290646812#1" to="800384387#5" modes="public"/>
    </person>
    <person id="ped158" depart="229.91" type="ped_pedestrian">
        <personTrip from="-800610499" to="171870086#1" modes="public"/>
    </person>
    <person id="ped159" depart="231.36" type="ped_pedestrian">
        <personTrip from="-171902839#0" to="800669876" modes="public"/>
    </person>
    <person id="ped160" depart="232.82" type="ped_pedestrian">
        <personTrip from="715685822" to="804207581" modes="public"/>
    </person>
    <person id="ped161" depart="234.27" type="ped_pedestrian">
        <personTrip from="374530997#0" to="800384387#1" modes="public"/>
    </person>
    <person id="ped162" depart="235.73" type="ped_pedestrian">
        <personTrip from="-133637886" to="236471195#0" modes="public"/>
    </person>
    <person id="ped163" depart="237.18" type="ped_pedestrian">
        <personTrip from="-706173404#2" to="800669877" modes="public"/>
    </person>
    <person id="ped164" depart="238.64" type="ped_pedestrian">
        <personTrip from="306475947#2" to="715685821" modes="public"/>
    </person>
    <person id="ped165" depart="240.09" type="ped_pedestrian">
        <personTrip from="374530997#0" to="-245441809#1" modes="public"/>
    </person>
    <person id="ped166" depart="241.55" type="ped_pedestrian">
        <personTrip from="306475941#2" to="-171867127#1" modes="public"/>
    </person>
    <person id="ped167" depart="243.00" type="ped_pedestrian">
        <personTrip from="800384378" to="713329445#1" modes="public"/>
    </person>
    <person id="ped168" depart="244.46" type="ped_pedestrian">
        <personTrip from="-186262687#0" to="543879349#0" modes="public"/>
    </person>
    <person id="ped169" depart="245.91" type="ped_pedestrian">
        <personTrip from="-803758035#1" to="-306475943#1" modes="public"/>
    </person>
    <person id="ped170" depart="247.37" type="ped_pedestrian">
        <personTrip from="306475945" to="-186262687#15" modes="public"/>
    </person>
    <person id="ped171" depart="248.82" type="ped_pedestrian">
        <personTrip from="-133637885" to="-186250794#0" modes="public"/>
    </person>
    <person id="ped172" depart="250.28" type="ped_pedestrian">
        <personTrip from="-646246743" to="715685822" modes="public"/>
    </person>
    <person id="ped173" depart="251.73" type="ped_pedestrian">
        <personTrip from="803758030" to="-246989092#1" modes="public"/>
    </person>
    <person id="ped174" depart="253.19" type="ped_pedestrian">
        <personTrip from="171902843#1" to="-800610494" modes="public"/>
    </person>
    <person id="ped175" depart="254.64" type="ped_pedestrian">
        <personTrip from="804207591#5" to="133755133#0" modes="public"/>
    </person>
    <person id="ped176" depart="256.10" type="ped_pedestrian">
        <personTrip from="800669886" to="-171867130#3" modes="public"/>
    </person>
    <person id="ped177" depart="257.55" type="ped_pedestrian">
        <personTrip from="803758036" to="-173655938#1" modes="public"/>
    </person>
    <person id="ped178" depart="259.01" type="ped_pedestrian">
        <personTrip from="803758026#1" to="-245441030" modes="public"/>
    </person>
    <person id="ped179" depart="260.46" type="ped_pedestrian">
        <personTrip from="-171867127#2" to="-800715314" modes="public"/>
    </person>
    <person id="ped180" depart="261.92" type="ped_pedestrian">
        <personTrip from="236471188#0" to="-306475947#0" modes="public"/>
    </person>
    <person id="ped181" depart="263.37" type="ped_pedestrian">
        <personTrip from="171867137#0" to="133755117#3" modes="public"/>
    </person>
    <person id="ped182" depart="264.83" type="ped_pedestrian">
        <personTrip from="-800610481" to="171865797#4" modes="public"/>
    </person>
    <person id="ped183" depart="266.28" type="ped_pedestrian">
        <personTrip from="-236471193#1" to="186262687#5" modes="public"/>
    </person>
    <person id="ped184" depart="267.74" type="ped_pedestrian">
        <personTrip from="-122612356#1" to="800669862" modes="public"/>
    </person>
    <person id="ped185" depart="269.19" type="ped_pedestrian">
        <personTrip from="133882909#0" to="186263426#1" modes="public"/>
    </person>
    <person id="ped186" depart="270.65" type="ped_pedestrian">
        <personTrip from="245441027#4" to="186250794#0" modes="public"/>
    </person>
    <person id="ped187" depart="272.10" type="ped_pedestrian">
        <personTrip from="-715685827" to="-158486424#0" modes="public"/>
    </person>
    <person id="ped188" depart="273.56" type="ped_pedestrian">
        <personTrip from="186250480#0" to="-706173403" modes="public"/>
    </person>
    <person id="ped189" depart="275.01" type="ped_pedestrian">
        <personTrip from="-306475947#0" to="706734275#3" modes="public"/>
    </person>
    <person id="ped190" depart="276.47" type="ped_pedestrian">
        <personTrip from="186263426#1" to="-306475941#2" modes="public"/>
    </person>
    <person id="ped191" depart="277.92" type="ped_pedestrian">
        <personTrip from="-306475946#0" to="-800610502" modes="public"/>
    </person>
    <person id="ped192" depart="279.38" type="ped_pedestrian">
        <personTrip from="-800610496" to="-290646813" modes="public"/>
    </person>
    <person id="ped193" depart="280.83" type="ped_pedestrian">
        <personTrip from="-171867137#1" to="-800669863" modes="public"/>
    </person>
    <person id="ped194" depart="282.29" type="ped_pedestrian">
        <personTrip from="800669887" to="186250799#0" modes="public"/>
    </person>
    <person id="ped195" depart="283.74" type="ped_pedestrian">
        <personTrip from="800610491" to="171870084#2" modes="public"/>
    </person>
    <person id="ped196" depart="285.20" type="ped_pedestrian">
        <personTrip from="-306475941#2" to="135530186#5" modes="public"/>
    </person>
    <person id="ped197" depart="286.66" type="ped_pedestrian">
        <personTrip from="-122612356#0" to="-288926324#3" modes="public"/>
    </person>
    <person id="ped198" depart="288.11" type="ped_pedestrian">
        <personTrip from="-800669885" to="171865797#8" modes="public"/>
    </person>
    <person id="ped199" depart="289.57" type="ped_pedestrian">