<?xml version="1.0" encoding="UTF-8"?>

<!-- generated on Thu Dec 24 18:43:14 2020 by Eclipse SUMO netedit Version 1.7.0
<configuration xmlns:xsi="http://www.w3.org/2001/XMLSchema-instance" xsi:noNamespaceSchemaLocation="http://sumo.dlr.de/xsd/netconvertConfiguration.xsd">

    <input>
        <sumo-net-file value="/home/shashwath/Sumo/2020-12-24-17-38-13/osm.net.xml"/>
    </input>

    <output>
        <output-file value="/home/shashwath/Sumo/2020-12-24-17-38-13/osm.net.xml"/>
        <output.street-names value="true"/>
    </output>

    <processing>
        <geometry.min-radius.fix.railways value="false"/>
        <geometry.max-grade.fix value="false"/>
        <offset.disable-normalization value="true"/>
        <lefthand value="true"/>
    </processing>

    <junctions>
        <no-internal-links value="false"/>
        <no-turnarounds value="true"/>
        <junctions.corner-detail value="5"/>
        <junctions.limit-turn-speed value="5.5"/>
        <rectangular-lane-cut value="false"/>
    </junctions>

    <pedestrian>
        <walkingareas value="true"/>
    </pedestrian>

    <report>
        <aggregate-warnings value="5"/>
    </report>

</configuration>
-->

<net version="1.6" junctionCornerDetail="5" walkingareas="true" lefthand="true" limitTurnSpeed="5.50" xmlns:xsi="http://www.w3.org/2001/XMLSchema-instance" xsi:noNamespaceSchemaLocation="http://sumo.dlr.de/xsd/net_file.xsd">

    <location netOffset="-475080.37,-1474039.92" convBoundary="90.43,0.00,11760.74,4071.27" origBoundary="74.769877,13.333618,74.878474,13.370446" projParameter="+proj=utm +zone=43 +ellps=WGS84 +datum=WGS84 +units=m +no_defs"/>

    <type id="cycleway.lane" allow="bicycle" bikeLaneWidth="1.00"/>
    <type id="cycleway.opposite_lane" allow="bicycle" bikeLaneWidth="1.00"/>
    <type id="cycleway.opposite_track" allow="bicycle" bikeLaneWidth="1.50"/>
    <type id="cycleway.track" allow="bicycle" bikeLaneWidth="1.50"/>
    <type id="highway.bridleway" priority="1" numLanes="1" speed="2.78" allow="pedestrian" oneway="1" width="2.00"/>
    <type id="highway.bus_guideway" priority="1" numLanes="1" speed="13.89" allow="bus" oneway="1"/>
    <type id="highway.cycleway" priority="1" numLanes="1" speed="8.33" allow="bicycle" oneway="0" width="1.00"/>
    <type id="highway.footway" priority="1" numLanes="1" speed="2.78" allow="pedestrian" oneway="1" width="2.00"/>
    <type id="highway.ford" priority="1" numLanes="1" speed="2.78" allow="army" oneway="0"/>
    <type id="highway.living_street" priority="2" numLanes="1" speed="2.78" disallow="tram rail_urban rail rail_electric rail_fast ship" oneway="0"/>
    <type id="highway.motorway" priority="14" numLanes="2" speed="27.78" allow="private emergency authority army vip passenger hov taxi bus coach delivery truck trailer motorcycle evehicle custom1 custom2" oneway="1"/>
    <type id="highway.motorway_link" priority="9" numLanes="1" speed="16.67" allow="private emergency authority army vip passenger hov taxi bus coach delivery truck trailer motorcycle evehicle custom1 custom2" oneway="1"/>
    <type id="highway.path" priority="1" numLanes="1" speed="2.78" allow="pedestrian bicycle" oneway="1" width="2.00"/>
    <type id="highway.pedestrian" priority="1" numLanes="1" speed="2.78" allow="pedestrian" oneway="1" width="2.00"/>
    <type id="highway.primary" priority="12" numLanes="2" speed="13.89" disallow="pedestrian tram rail_urban rail rail_electric rail_fast ship" oneway="0" sidewalkWidth="3.00"/>
    <type id="highway.primary_link" priority="7" numLanes="1" speed="13.89" disallow="pedestrian tram rail_urban rail rail_electric rail_fast ship" oneway="0" sidewalkWidth="3.00"/>
    <type id="highway.raceway" priority="15" numLanes="2" speed="83.33" allow="vip" oneway="0"/>
    <type id="highway.residential" priority="3" numLanes="1" speed="13.89" disallow="pedestrian tram rail_urban rail rail_electric rail_fast ship" oneway="0" sidewalkWidth="2.00"/>
    <type id="highway.secondary" priority="11" numLanes="1" speed="13.89" disallow="pedestrian tram rail_urban rail rail_electric rail_fast ship" oneway="0" sidewalkWidth="3.00"/>
    <type id="highway.secondary_link" priority="6" numLanes="1" speed="13.89" disallow="pedestrian tram rail_urban rail rail_electric rail_fast ship" oneway="0" sidewalkWidth="3.00"/>
    <type id="highway.service" priority="1" numLanes="1" speed="5.56" allow="pedestrian delivery bicycle" oneway="0"/>
    <type id="highway.stairs" priority="1" numLanes="1" speed="1.39" allow="pedestrian" oneway="1" width="2.00"/>
    <type id="highway.step" priority="1" numLanes="1" speed="1.39" allow="pedestrian" oneway="1" width="2.00"/>
    <type id="highway.steps" priority="1" numLanes="1" speed="1.39" allow="pedestrian" oneway="1" width="2.00"/>
    <type id="highway.tertiary" priority="10" numLanes="1" speed="13.89" disallow="pedestrian tram rail_urban rail rail_electric rail_fast ship" oneway="0" sidewalkWidth="3.00"/>
    <type id="highway.tertiary_link" priority="5" numLanes="1" speed="13.89" disallow="pedestrian tram rail_urban rail rail_electric rail_fast ship" oneway="0" sidewalkWidth="2.00"/>
    <type id="highway.track" priority="1" numLanes="1" speed="5.56" allow="pedestrian motorcycle moped bicycle" oneway="0"/>
    <type id="highway.trunk" priority="13" numLanes="2" speed="13.89" disallow="pedestrian bicycle tram rail_urban rail rail_electric rail_fast ship" oneway="0"/>
    <type id="highway.trunk_link" priority="8" numLanes="1" speed="13.89" disallow="pedestrian bicycle tram rail_urban rail rail_electric rail_fast ship" oneway="0"/>
    <type id="highway.unclassified" priority="4" numLanes="1" speed="13.89" disallow="pedestrian tram rail_urban rail rail_electric rail_fast ship" oneway="0" sidewalkWidth="2.00"/>
    <type id="highway.unsurfaced" priority="1" numLanes="1" speed="8.33" disallow="tram rail_urban rail rail_electric rail_fast ship" oneway="0"/>
    <type id="railway.highspeed" priority="21" numLanes="1" speed="69.44" allow="rail_fast" oneway="1"/>
    <type id="railway.light_rail" priority="19" numLanes="1" speed="27.78" allow="rail_urban" oneway="1"/>
    <type id="railway.preserved" priority="16" numLanes="1" speed="27.78" allow="rail" oneway="1"/>
    <type id="railway.rail" priority="20" numLanes="1" speed="44.44" allow="rail" oneway="1"/>
    <type id="railway.subway" priority="18" numLanes="1" speed="27.78" allow="rail_urban" oneway="1"/>
    <type id="railway.tram" priority="17" numLanes="1" speed="13.89" allow="tram" oneway="1"/>

    <edge id=":1369614871_0" function="internal">
        <lane id=":1369614871_0_0" index="0" disallow="pedestrian tram rail_urban rail rail_electric rail_fast ship" speed="13.89" length="15.17" shape="2446.88,1516.20 2442.53,1515.05 2439.53,1514.31 2436.51,1513.69 2432.08,1512.92"/>
    </edge>
    <edge id=":1369614871_1" function="internal">
        <lane id=":1369614871_1_0" index="0" disallow="pedestrian tram rail_urban rail rail_electric rail_fast ship" speed="7.84" length="6.22" shape="2446.88,1516.20 2442.46,1515.69 2440.78,1516.27"/>
    </edge>
    <edge id=":1369614871_2" function="internal">
        <lane id=":1369614871_2_0" index="0" disallow="pedestrian tram rail_urban rail rail_electric rail_fast ship" speed="3.65" length="2.34" shape="2446.88,1516.20 2445.52,1516.67 2444.93,1517.34"/>
    </edge>
    <edge id=":1369614871_9" function="internal">
        <lane id=":1369614871_9_0" index="0" disallow="pedestrian tram rail_urban rail rail_electric rail_fast ship" speed="7.84" length="9.53" shape="2440.78,1516.27 2439.22,1516.81 2437.18,1519.55 2436.32,1523.92"/>
    </edge>
    <edge id=":1369614871_10" function="internal">
        <lane id=":1369614871_10_0" index="0" disallow="pedestrian tram rail_urban rail rail_electric rail_fast ship" speed="3.65" length="2.34" shape="2444.93,1517.34 2445.11,1518.21 2446.07,1519.29"/>
    </edge>
    <edge id=":1369614871_3" function="internal">
        <lane id=":1369614871_3_0" index="0" disallow="pedestrian tram rail_urban rail rail_electric rail_fast ship" speed="6.31" length="9.77" shape="2439.52,1524.08 2440.05,1521.37 2441.32,1519.67 2443.32,1518.98 2446.07,1519.29"/>
    </edge>
    <edge id=":1369614871_4" function="internal">
        <lane id=":1369614871_4_0" index="0" disallow="pedestrian tram rail_urban rail rail_electric rail_fast ship" speed="8.55" length="14.90" shape="2439.52,1524.08 2439.24,1519.70 2437.90,1516.38 2435.52,1514.12 2432.08,1512.92"/>
    </edge>
    <edge id=":1369614871_5" function="internal">
        <lane id=":1369614871_5_0" index="0" disallow="pedestrian tram rail_urban rail rail_electric rail_fast ship" speed="3.65" length="4.67" shape="2439.52,1524.08 2438.78,1522.84 2438.00,1522.40 2437.18,1522.76 2436.32,1523.92"/>
    </edge>
    <edge id=":1369614871_6" function="internal">
        <lane id=":1369614871_6_0" index="0" disallow="pedestrian tram rail_urban rail rail_electric rail_fast ship" speed="7.17" length="6.09" shape="2431.54,1516.07 2433.77,1516.89 2435.30,1518.47 2435.82,1519.89"/>
    </edge>
    <edge id=":1369614871_7" function="internal">
        <lane id=":1369614871_7_0" index="0" disallow="pedestrian tram rail_urban rail rail_electric rail_fast ship" speed="13.89" length="14.88" shape="2431.54,1516.07 2435.90,1516.83 2438.86,1517.44 2441.79,1518.16 2446.07,1519.29"/>
    </edge>
    <edge id=":1369614871_8" function="internal">
        <lane id=":1369614871_8_0" index="0" disallow="pedestrian tram rail_urban rail rail_electric rail_fast ship" speed="3.65" length="2.34" shape="2431.54,1516.07 2432.86,1515.49 2433.39,1514.76"/>
    </edge>
    <edge id=":1369614871_11" function="internal">
        <lane id=":1369614871_11_0" index="0" disallow="pedestrian tram rail_urban rail rail_electric rail_fast ship" speed="7.17" length="4.09" shape="2435.82,1519.89 2436.15,1520.81 2436.32,1523.92"/>
    </edge>
    <edge id=":1369614871_12" function="internal">
        <lane id=":1369614871_12_0" index="0" disallow="pedestrian tram rail_urban rail rail_electric rail_fast ship" speed="3.65" length="2.34" shape="2433.39,1514.76 2433.13,1513.91 2432.08,1512.92"/>
    </edge>
    <edge id=":1369614871_c0" function="crossing" crossingEdges="-171867136#0 171867136#0">
        <lane id=":1369614871_c0_0" index="0" allow="pedestrian" speed="1.00" length="6.40" width="4.00" shape="2443.72,1520.33 2445.36,1514.14"/>
    </edge>
    <edge id=":1369614871_c1" function="crossing" crossingEdges="-122612356#1 122612356#1">
        <lane id=":1369614871_c1_0" index="0" allow="pedestrian" speed="1.00" length="6.40" width="4.00" shape="2434.82,1521.85 2441.22,1522.16"/>
    </edge>
    <edge id=":1369614871_c2" function="crossing" crossingEdges="171867136#1 -171867136#1">
        <lane id=":1369614871_c2_0" index="0" allow="pedestrian" speed="1.00" length="6.40" width="4.00" shape="2434.32,1511.67 2433.25,1517.98"/>
    </edge>
    <edge id=":1369614871_w0" function="walkingarea">
        <lane id=":1369614871_w0_0" index="0" allow="pedestrian" speed="1.00" length="9.66" width="4.00" shape="2432.34,1511.34 2432.68,1509.37 2447.80,1512.72 2447.29,1514.65 2444.14,1513.82 2441.80,1513.21 2439.87,1512.74 2437.93,1512.33 2435.56,1511.89"/>
    </edge>
    <edge id=":1369614871_w1" function="walkingarea">
        <lane id=":1369614871_w1_0" index="0" allow="pedestrian" speed="1.00" length="3.34" width="4.00" shape="2445.66,1520.84 2445.15,1522.77 2443.11,1524.26 2441.12,1524.16 2441.30,1522.83 2441.72,1521.81 2442.36,1521.10 2443.23,1520.70 2444.33,1520.62"/>
    </edge>
    <edge id=":1369614871_w2" function="walkingarea">
        <lane id=":1369614871_w2_0" index="0" allow="pedestrian" speed="1.00" length="4.19" width="4.00" shape="2434.72,1523.84 2432.73,1523.74 2430.94,1519.62 2431.28,1517.65 2432.41,1518.00 2433.32,1518.62 2434.00,1519.51 2434.47,1520.68 2434.71,1522.13"/>
    </edge>
    <edge id=":1369615162_0" function="internal">
        <lane id=":1369615162_0_0" index="0" disallow="pedestrian tram rail_urban rail rail_electric rail_fast ship" speed="13.89" length="23.94" shape="2327.41,2127.60 2325.13,2134.49 2322.74,2140.62 2320.48,2145.81 2318.60,2149.84"/>
    </edge>
    <edge id=":1369615162_1" function="internal">
        <lane id=":1369615162_1_0" index="0" disallow="pedestrian tram rail_urban rail rail_electric rail_fast ship" speed="7.78" length="17.31" shape="2327.41,2127.60 2326.66,2132.59 2327.85,2135.98 2330.98,2137.77 2336.05,2137.96"/>
    </edge>
    <edge id=":1369615162_2" function="internal">
        <lane id=":1369615162_2_0" index="0" disallow="pedestrian tram rail_urban rail rail_electric rail_fast ship" speed="3.65" length="2.54" shape="2327.41,2127.60 2327.85,2128.98 2328.51,2129.58 2328.71,2129.54"/>
    </edge>
    <edge id=":1369615162_8" function="internal">
        <lane id=":1369615162_8_0" index="0" disallow="pedestrian tram rail_urban rail rail_electric rail_fast ship" speed="3.65" length="2.13" shape="2328.71,2129.54 2329.39,2129.42 2330.49,2128.48"/>
    </edge>
    <edge id=":1369615162_3" function="internal">
        <lane id=":1369615162_3_0" index="0" disallow="pedestrian tram rail_urban rail rail_electric rail_fast ship" speed="6.20" length="10.52" shape="2335.73,2134.78 2332.66,2134.66 2330.75,2133.57 2330.03,2131.51 2330.49,2128.48"/>
    </edge>
    <edge id=":1369615162_4" function="internal">
        <lane id=":1369615162_4_0" index="0" disallow="pedestrian tram rail_urban rail rail_electric rail_fast ship" speed="13.24" length="4.77" shape="2335.73,2134.78 2331.13,2136.00"/>
    </edge>
    <edge id=":1369615162_5" function="internal">
        <lane id=":1369615162_5_0" index="0" disallow="pedestrian tram rail_urban rail rail_electric rail_fast ship" speed="3.65" length="2.09" shape="2335.73,2134.78 2334.62,2135.69 2334.39,2136.30"/>
    </edge>
    <edge id=":1369615162_9" function="internal">
        <lane id=":1369615162_9_0" index="0" disallow="pedestrian tram rail_urban rail rail_electric rail_fast ship" speed="13.24" length="19.08" shape="2331.13,2136.00 2330.72,2136.11 2326.19,2139.07 2322.15,2143.64 2318.60,2149.84"/>
    </edge>
    <edge id=":1369615162_10" function="internal">
        <lane id=":1369615162_10_0" index="0" disallow="pedestrian tram rail_urban rail rail_electric rail_fast ship" speed="3.65" length="2.59" shape="2334.39,2136.30 2334.30,2136.53 2334.78,2137.28 2336.05,2137.96"/>
    </edge>
    <edge id=":1369615162_6" function="internal">
        <lane id=":1369615162_6_0" index="0" disallow="pedestrian tram rail_urban rail rail_electric rail_fast ship" speed="12.31" length="20.55" shape="2321.49,2151.21 2324.59,2145.74 2328.06,2141.71 2331.88,2139.12 2336.05,2137.96"/>
    </edge>
    <edge id=":1369615162_7" function="internal">
        <lane id=":1369615162_7_0" index="0" disallow="pedestrian tram rail_urban rail rail_electric rail_fast ship" speed="13.89" length="24.46" shape="2321.49,2151.21 2323.40,2147.10 2325.72,2141.75 2328.18,2135.44 2330.49,2128.48"/>
    </edge>
    <edge id=":1369615162_w0" function="walkingarea">
        <lane id=":1369615162_w0_0" index="0" allow="pedestrian" speed="1.00" length="17.94" width="3.20" shape="2336.21,2139.55 2336.41,2141.54 2322.94,2151.89 2320.04,2150.52 2320.04,2150.52 2317.15,2149.16 2323.95,2126.60 2325.87,2127.17 2325.02,2131.34 2325.20,2134.68 2326.40,2137.17 2328.64,2138.82 2331.91,2139.61"/>
    </edge>
    <edge id=":1369615162_w1" function="walkingarea">
        <lane id=":1369615162_w1_0" index="0" allow="pedestrian" speed="1.00" length="3.89" width="2.00" shape="2332.03,2128.91 2333.94,2129.48 2335.38,2131.19 2335.58,2133.19 2334.10,2133.20 2332.97,2132.93 2332.20,2132.37 2331.79,2131.52 2331.73,2130.37"/>
    </edge>
    <edge id=":1369615209_0" function="internal">
        <lane id=":1369615209_0_0" index="0" disallow="pedestrian tram rail_urban rail rail_electric rail_fast ship" speed="11.59" length="11.12" shape="2553.67,2022.55 2552.99,2025.81 2552.44,2028.15 2551.31,2030.08 2548.88,2032.08"/>
    </edge>
    <edge id=":1369615209_1" function="internal">
        <lane id=":1369615209_1_0" index="0" disallow="pedestrian tram rail_urban rail rail_electric rail_fast ship" speed="7.83" length="15.90" shape="2553.67,2022.55 2553.18,2027.03 2554.33,2030.28 2557.13,2032.28 2561.57,2033.04"/>
    </edge>
    <edge id=":1369615209_2" function="internal">
        <lane id=":1369615209_2_0" index="0" disallow="pedestrian tram rail_urban rail rail_electric rail_fast ship" speed="3.65" length="4.67" shape="2553.67,2022.55 2554.15,2023.91 2554.82,2024.50 2555.70,2024.31 2556.77,2023.35"/>
    </edge>
    <edge id=":1369615209_3" function="internal">
        <lane id=":1369615209_3_0" index="0" disallow="pedestrian tram rail_urban rail rail_electric rail_fast ship" speed="6.30" length="5.55" shape="2561.66,2029.84 2558.91,2029.37 2557.18,2028.13 2556.97,2027.53"/>
    </edge>
    <edge id=":1369615209_4" function="internal">
        <lane id=":1369615209_4_0" index="0" disallow="pedestrian tram rail_urban rail rail_electric rail_fast ship" speed="13.89" length="13.36" shape="2561.66,2029.84 2557.69,2029.61 2554.86,2029.55 2552.24,2030.20 2548.88,2032.08"/>
    </edge>
    <edge id=":1369615209_5" function="internal">
        <lane id=":1369615209_5_0" index="0" disallow="pedestrian tram rail_urban rail rail_electric rail_fast ship" speed="3.65" length="2.34" shape="2561.66,2029.84 2560.44,2030.61 2560.02,2031.40"/>
    </edge>
    <edge id=":1369615209_9" function="internal">
        <lane id=":1369615209_9_0" index="0" disallow="pedestrian tram rail_urban rail rail_electric rail_fast ship" speed="6.30" length="4.28" shape="2556.97,2027.53 2556.47,2026.13 2556.77,2023.35"/>
    </edge>
    <edge id=":1369615209_10" function="internal">
        <lane id=":1369615209_10_0" index="0" disallow="pedestrian tram rail_urban rail rail_electric rail_fast ship" speed="3.65" length="2.34" shape="2560.02,2031.40 2560.39,2032.21 2561.57,2033.04"/>
    </edge>
    <edge id=":1369615209_6" function="internal">
        <lane id=":1369615209_6_0" index="0" disallow="pedestrian tram rail_urban rail rail_electric rail_fast ship" speed="13.53" length="11.39" shape="2550.64,2034.75 2553.52,2033.17 2555.76,2032.69 2558.18,2032.82 2561.57,2033.04"/>
    </edge>
    <edge id=":1369615209_7" function="internal">
        <lane id=":1369615209_7_0" index="0" disallow="pedestrian tram rail_urban rail rail_electric rail_fast ship" speed="12.72" length="5.05" shape="2550.64,2034.75 2553.65,2032.34 2554.30,2031.34"/>
    </edge>
    <edge id=":1369615209_8" function="internal">
        <lane id=":1369615209_8_0" index="0" disallow="pedestrian tram rail_urban rail rail_electric rail_fast ship" speed="3.65" length="2.20" shape="2550.64,2034.75 2551.20,2033.42 2551.11,2032.67"/>
    </edge>
    <edge id=":1369615209_11" function="internal">
        <lane id=":1369615209_11_0" index="0" disallow="pedestrian tram rail_urban rail rail_electric rail_fast ship" speed="12.72" length="8.43" shape="2554.30,2031.34 2555.12,2030.06 2555.89,2027.27 2556.77,2023.35"/>
    </edge>
    <edge id=":1369615209_12" function="internal">
        <lane id=":1369615209_12_0" index="0" disallow="pedestrian tram rail_urban rail rail_electric rail_fast ship" speed="3.65" length="2.47" shape="2551.11,2032.67 2551.09,2032.53 2550.32,2032.09 2548.88,2032.08"/>
    </edge>
    <edge id=":1369615209_c0" function="crossing" crossingEdges="186263433#0 -186263433#0">
        <lane id=":1369615209_c0_0" index="0" allow="pedestrian" speed="1.00" length="6.40" width="4.00" shape="2557.82,2025.69 2551.62,2024.09"/>
    </edge>
    <edge id=":1369615209_c1" function="crossing" crossingEdges="122612374#2 -122612374#2">
        <lane id=":1369615209_c1_0" index="0" allow="pedestrian" speed="1.00" length="6.40" width="4.00" shape="2559.53,2034.59 2559.70,2028.19"/>
    </edge>
    <edge id=":1369615209_c2" function="crossing" crossingEdges="-122612374#1 122612374#1">
        <lane id=":1369615209_c2_0" index="0" allow="pedestrian" speed="1.00" length="6.40" width="4.00" shape="2549.66,2029.65 2553.19,2034.98"/>
    </edge>
    <edge id=":1369615209_w0" function="walkingarea">
        <lane id=":1369615209_w0_0" index="0" allow="pedestrian" speed="1.00" length="5.71" width="4.00" shape="2547.99,2030.75 2546.89,2029.08 2550.19,2021.65 2552.12,2022.15 2551.68,2024.21 2551.41,2025.85 2551.10,2027.20 2550.56,2028.38 2549.60,2029.52"/>
    </edge>
    <edge id=":1369615209_w1" function="walkingarea">
        <lane id=":1369615209_w1_0" index="0" allow="pedestrian" speed="1.00" length="3.34" width="4.00" shape="2558.32,2023.75 2560.26,2024.25 2561.76,2026.24 2561.70,2028.24 2560.36,2028.08 2559.32,2027.69 2558.60,2027.06 2558.19,2026.19 2558.10,2025.09"/>
    </edge>
    <edge id=":1369615209_w2" function="walkingarea">
        <lane id=":1369615209_w2_0" index="0" allow="pedestrian" speed="1.00" length="6.08" width="4.00" shape="2561.53,2034.64 2561.47,2036.64 2552.63,2037.75 2551.53,2036.08 2553.38,2035.00 2554.87,2034.44 2556.21,2034.26 2557.63,2034.33 2559.33,2034.51"/>
    </edge>
    <edge id=":1464088395_0" function="internal">
        <lane id=":1464088395_0_0" index="0" disallow="pedestrian bicycle tram rail_urban rail rail_electric rail_fast ship" speed="13.89" length="0.23" shape="845.47,1604.72 845.29,1604.70"/>
        <lane id=":1464088395_0_1" index="1" disallow="pedestrian bicycle tram rail_urban rail rail_electric rail_fast ship" speed="13.89" length="0.23" shape="845.14,1607.90 844.85,1607.87"/>
    </edge>
    <edge id=":1464088413_0" function="internal">
        <lane id=":1464088413_0_0" index="0" disallow="pedestrian bicycle tram rail_urban rail rail_electric rail_fast ship" speed="10.47" length="6.58" shape="1540.85,1510.76 1540.92,1512.92 1541.27,1514.39 1542.03,1515.73 1543.32,1517.49"/>
        <lane id=":1464088413_0_1" index="1" disallow="pedestrian bicycle tram rail_urban rail rail_electric rail_fast ship" speed="9.30" length="6.58" shape="1544.05,1510.81 1544.14,1512.48 1544.48,1513.59 1545.14,1514.61 1546.17,1515.97"/>
    </edge>
    <edge id=":1464088413_2" function="internal">
        <lane id=":1464088413_2_0" index="0" disallow="pedestrian bicycle tram rail_urban rail rail_electric rail_fast ship" speed="7.21" length="7.46" shape="1536.70,1515.10 1538.71,1514.95 1540.49,1515.30 1542.03,1516.14 1543.32,1517.49"/>
    </edge>
    <edge id=":1464088413_3" function="internal">
        <lane id=":1464088413_3_0" index="0" disallow="pedestrian bicycle tram rail_urban rail rail_electric rail_fast ship" speed="8.81" length="11.48" shape="1536.10,1511.96 1539.08,1511.76 1541.75,1512.37 1544.11,1513.77 1546.17,1515.97"/>
    </edge>
    <edge id=":1464088452_0" function="internal">
        <lane id=":1464088452_0_0" index="0" disallow="pedestrian bicycle tram rail_urban rail rail_electric rail_fast ship" speed="13.89" length="0.38" shape="259.02,1351.10 258.87,1351.02 258.77,1350.96 258.66,1350.91 258.51,1350.85"/>
        <lane id=":1464088452_0_1" index="1" disallow="pedestrian bicycle tram rail_urban rail rail_electric rail_fast ship" speed="13.89" length="0.38" shape="257.45,1353.89 257.40,1353.86 257.37,1353.84 257.33,1353.83 257.28,1353.81"/>
    </edge>
    <edge id=":1464088459_0" function="internal">
        <lane id=":1464088459_0_0" index="0" disallow="pedestrian bicycle tram rail_urban rail rail_electric rail_fast ship" speed="5.97" length="7.52" shape="1631.11,1587.13 1629.66,1587.88 1628.12,1587.80 1626.49,1586.87 1624.76,1585.11"/>
    </edge>
    <edge id=":1464088459_1" function="internal">
        <lane id=":1464088459_1_0" index="0" disallow="pedestrian tram rail_urban rail rail_electric rail_fast ship" speed="3.65" length="4.67" shape="1631.11,1587.13 1630.70,1588.51 1630.91,1589.38 1631.73,1589.74 1633.16,1589.58"/>
    </edge>
    <edge id=":1464088459_2" function="internal">
        <lane id=":1464088459_2_0" index="0" disallow="pedestrian bicycle tram rail_urban rail rail_electric rail_fast ship" speed="6.00" length="7.54" shape="1633.95,1596.23 1632.55,1594.20 1631.95,1592.42 1632.16,1590.88 1633.16,1589.58"/>
    </edge>
    <edge id=":1464088459_3" function="internal">
        <lane id=":1464088459_3_0" index="0" disallow="pedestrian bicycle tram rail_urban rail rail_electric rail_fast ship" speed="13.89" length="14.45" shape="1633.95,1596.23 1624.76,1585.11"/>
        <lane id=":1464088459_3_1" index="1" disallow="pedestrian bicycle tram rail_urban rail rail_electric rail_fast ship" speed="13.89" length="14.45" shape="1631.50,1598.29 1622.28,1587.13"/>
    </edge>
    <edge id=":1464088459_c0" function="crossing" crossingEdges="171870086#0 -171870086#0">
        <lane id=":1464088459_c0_0" index="0" allow="pedestrian" speed="1.00" length="6.40" width="4.00" shape="1632.65,1592.09 1628.55,1587.19"/>
    </edge>
    <edge id=":1464088459_w0" function="walkingarea">
        <lane id=":1464088459_w0_0" index="0" allow="pedestrian" speed="1.00" length="2.24" width="4.00" shape="1628.80,1584.37 1630.08,1585.90 1629.54,1586.21 1628.94,1586.28 1628.29,1586.10 1627.58,1585.68 1626.82,1585.01"/>
    </edge>
    <edge id=":1464088459_w1" function="walkingarea">
        <lane id=":1464088459_w1_0" index="0" allow="pedestrian" speed="1.00" length="2.24" width="4.00" shape="1634.19,1590.81 1635.47,1592.35 1634.44,1594.23 1633.92,1593.35 1633.64,1592.57 1633.59,1591.89 1633.78,1591.30"/>
    </edge>
    <edge id=":1464112031_0" function="internal">
        <lane id=":1464112031_0_0" index="0" disallow="pedestrian tram rail_urban rail rail_electric rail_fast ship" speed="8.34" length="8.42" shape="1649.84,2765.75 1647.82,2766.60 1646.19,2767.82 1644.93,2769.42 1644.05,2771.39"/>
    </edge>
    <edge id=":1464112031_1" function="internal">
        <lane id=":1464112031_1_0" index="0" disallow="pedestrian tram rail_urban rail rail_electric rail_fast ship" speed="11.08" length="9.66" shape="1643.93,2762.07 1644.92,2764.71 1645.21,2766.67 1644.89,2768.66 1644.05,2771.39"/>
    </edge>
    <edge id=":1464112031_c0" function="crossing" crossingEdges="804217356#11">
        <lane id=":1464112031_c0_0" index="0" allow="pedestrian" speed="1.00" length="3.20" width="4.00" shape="1646.19,2763.28 1643.24,2764.54"/>
    </edge>
    <edge id=":1464112031_w0" function="walkingarea">
        <lane id=":1464112031_w0_0" index="0" allow="pedestrian" speed="1.00" length="1.89" width="4.00" shape="1645.40,2761.44 1647.22,2761.97 1648.93,2764.43 1648.58,2764.35 1647.84,2764.24 1647.15,2763.90 1646.51,2763.31 1645.93,2762.50"/>
    </edge>
    <edge id=":1464112031_w1" function="walkingarea">
        <lane id=":1464112031_w1_0" index="0" allow="pedestrian" speed="1.00" length="4.69" width="4.00" shape="1642.76,2770.44 1640.34,2768.67 1639.70,2763.88 1642.46,2762.70 1643.11,2764.34 1643.47,2765.63 1643.56,2766.75 1643.42,2767.88 1643.07,2769.20"/>
    </edge>
    <edge id=":1464112055_0" function="internal">
        <lane id=":1464112055_0_0" index="0" disallow="pedestrian tram rail_urban rail rail_electric rail_fast ship" speed="13.89" length="0.65" shape="1516.44,2141.78 1516.44,2141.97 1516.45,2142.10 1516.48,2142.23 1516.54,2142.41"/>
    </edge>
    <edge id=":1464112055_w0" function="walkingarea">
        <lane id=":1464112055_w0_0" index="0" allow="pedestrian" speed="1.00" length="1.88" width="3.00" shape="1515.05,2142.97 1512.24,2144.03 1511.85,2141.58 1514.84,2141.71 1514.83,2141.98 1514.83,2142.19 1514.85,2142.36 1514.89,2142.52 1514.95,2142.72"/>
    </edge>
    <edge id=":1464112150_0" function="internal">
        <lane id=":1464112150_0_0" index="0" disallow="pedestrian tram rail_urban rail rail_electric rail_fast ship" speed="13.89" length="0.20" shape="1582.02,2628.75 1582.10,2628.93"/>
    </edge>
    <edge id=":1464112150_w0" function="walkingarea">
        <lane id=":1464112150_w0_0" index="0" allow="pedestrian" speed="1.00" length="0.43" width="3.00" shape="1580.63,2629.57 1577.88,2630.76 1577.67,2630.25 1580.51,2629.27"/>
    </edge>
    <edge id=":1470899831_0" function="internal">
        <lane id=":1470899831_0_0" index="0" disallow="pedestrian bicycle tram rail_urban rail rail_electric rail_fast ship" speed="13.89" length="0.26" shape="311.35,1384.18 311.04,1383.94"/>
        <lane id=":1470899831_0_1" index="1" disallow="pedestrian bicycle tram rail_urban rail rail_electric rail_fast ship" speed="13.89" length="0.26" shape="309.31,1386.65 309.21,1386.57"/>
    </edge>
    <edge id=":1470899838_0" function="internal">
        <lane id=":1470899838_0_0" index="0" disallow="pedestrian bicycle tram rail_urban rail rail_electric rail_fast ship" speed="13.89" length="0.22" shape="380.70,1449.67 380.62,1449.60"/>
        <lane id=":1470899838_0_1" index="1" disallow="pedestrian bicycle tram rail_urban rail rail_electric rail_fast ship" speed="13.89" length="0.22" shape="378.69,1452.16 378.44,1451.95"/>
    </edge>
    <edge id=":1470902994_0" function="internal">
        <lane id=":1470902994_0_0" index="0" disallow="pedestrian tram rail_urban rail rail_electric rail_fast ship" speed="13.89" length="0.35" shape="722.11,1269.84 722.06,1270.19"/>
    </edge>
    <edge id=":1470902994_1" function="internal">
        <lane id=":1470902994_1_0" index="0" disallow="pedestrian tram rail_urban rail rail_electric rail_fast ship" speed="3.65" length="2.34" shape="722.11,1269.84 722.68,1271.16 723.40,1271.70"/>
    </edge>
    <edge id=":1470902994_4" function="internal">
        <lane id=":1470902994_4_0" index="0" disallow="pedestrian tram rail_urban rail rail_electric rail_fast ship" speed="3.65" length="2.34" shape="723.40,1271.70 724.26,1271.45 725.26,1270.41"/>
    </edge>
    <edge id=":1470902994_2" function="internal">
        <lane id=":1470902994_2_0" index="0" disallow="pedestrian tram rail_urban rail rail_electric rail_fast ship" speed="13.89" length="0.19" shape="725.23,1270.61 725.26,1270.41"/>
    </edge>
    <edge id=":1470902994_3" function="internal">