<?xml version="1.0" encoding="UTF-8"?>

<!-- generated on Thu Dec 24 17:38:24 2020 by Eclipse SUMO duarouter Version 1.7.0
<configuration xmlns:xsi="http://www.w3.org/2001/XMLSchema-instance" xsi:noNamespaceSchemaLocation="http://sumo.dlr.de/xsd/duarouterConfiguration.xsd">

    <input>
        <net-file value="/home/shashwath/Sumo/2020-12-24-17-38-13/osm.net.xml"/>
        <route-files value="/home/shashwath/Sumo/2020-12-24-17-38-13/osm.passenger.trips.xml"/>
    </input>

    <output>
        <output-file value="/home/shashwath/Sumo/2020-12-24-17-38-13/osm.passenger.trips.xml.tmp"/>
        <write-trips value="true"/>
    </output>

    <time>
        <begin value="0"/>
        <end value="3600"/>
    </time>

    <report>
        <no-warnings value="true"/>
        <ignore-errors value="true"/>
        <no-step-log value="true"/>
    </report>

</configuration>
-->

<routes xmlns:xsi="http://www.w3.org/2001/XMLSchema-instance" xsi:noNamespaceSchemaLocation="http://sumo.dlr.de/xsd/routes_file.xsd">
    <vType id="veh_passenger" vClass="passenger"/>
    <trip id="veh0" type="veh_passenger" depart="0.00" departLane="best" from="173655926#5" to="-133637886"/>
    <trip id="veh1" type="veh_passenger" depart="1.12" departLane="best" from="-286437949" to="-186262687#11"/>
    <trip id="veh2" type="veh_passenger" depart="2.23" departLane="best" from="246989083#2" to="186258449"/>
    <trip id="veh3" type="veh_passenger" depart="3.35" departLane="best" from="800384390#0" to="-171865792#7"/>
    <trip id="veh4" type="veh_passenger" depart="4.47" departLane="best" from="-800669888" to="-133755117#2"/>
    <trip id="veh5" type="veh_passenger" depart="5.58" departLane="best" from="-186258462#0" to="133755123"/>
    <trip id="veh6" type="veh_passenger" depart="6.70" departLane="best" from="173655938#7" to="158486424#9"/>
    <trip id="veh7" type="veh_passenger" depart="7.82" departLane="best" from="-186262687#0" to="171867136#1"/>
    <trip id="veh8" type="veh_passenger" depart="8.94" departLane="best" from="374529120#8" to="-133637484#0"/>
    <trip id="veh9" type="veh_passenger" depart="10.05" departLane="best" from="374529120#3" to="186262687#9"/>
    <trip id="veh10" type="veh_passenger" depart="11.17" departLane="best" from="803758018" to="-706734275#0"/>
    <trip id="veh11" type="veh_passenger" depart="12.29" departLane="best" from="-171865797#2" to="-171865797#7"/>
    <trip id="veh13" type="veh_passenger" depart="14.52" departLane="best" from="374529120#6" to="246982749#1"/>
    <trip id="veh14" type="veh_passenger" depart="15.64" departLane="best" from="135530186#8" to="803758037"/>
    <trip id="veh15" type="veh_passenger" depart="16.75" departLane="best" from="-800610482#1" to="171865792#12"/>
    <trip id="veh16" type="veh_passenger" depart="17.87" departLane="best" from="374533524#2" to="171902837#0"/>
    <trip id="veh17" type="veh_passenger" depart="18.99" departLane="best" from="713329444#1" to="171867127#3"/>
    <trip id="veh18" type="veh_passenger" depart="20.11" departLane="best" from="186263433#1" to="-133755126#2"/>
    <trip id="veh19" type="veh_passenger" depart="21.22" departLane="best" from="-171865791" to="-186262687#9"/>
    <trip id="veh20" type="veh_passenger" depart="22.34" departLane="best" from="-171867126#1" to="-286438372"/>
    <trip id="veh21" type="veh_passenger" depart="23.46" departLane="best" from="173655926#1" to="-800384385"/>
    <trip id="veh22" type="veh_passenger" depart="24.57" departLane="best" from="-800384387#5" to="-186254736#9"/>
    <trip id="veh23" type="veh_passenger" depart="25.69" departLane="best" from="-246982755#1" to="800669878"/>
    <trip id="veh24" type="veh_passenger" depart="26.81" departLane="best" from="173655938#5" to="171870088"/>
    <trip id="veh25" type="veh_passenger" depart="27.92" departLane="best" from="-173655926#2" to="246982749#0"/>
    <trip id="veh26" type="veh_passenger" depart="29.04" departLane="best" from="-171902843#1" to="-800610482#2"/>
    <trip id="veh27" type="veh_passenger" depart="30.16" departLane="best" from="804217356#9" to="173655926#6"/>
    <trip id="veh28" type="veh_passenger" depart="31.27" departLane="best" from="171865792#8" to="186258462#0"/>
    <trip id="veh29" type="veh_passenger" depart="32.39" departLane="best" from="646246743" to="306475946#3"/>
    <trip id="veh30" type="veh_passenger" depart="33.51" departLane="best" from="-186262687#5" to="-133755118#0"/>
    <trip id="veh31" type="veh_passenger" depart="34.63" departLane="best" from="-373896382#12" to="-246989083#0"/>
    <trip id="veh32" type="veh_passenger" depart="35.74" departLane="best" from="-186258449" to="800669887"/>
    <trip id="veh33" type="veh_passenger" depart="36.86" departLane="best" from="800384377" to="-373896382#1"/>
    <trip id="veh34" type="veh_passenger" depart="37.98" departLane="best" from="186250480#4" to="-800610497"/>
    <trip id="veh35" type="veh_passenger" depart="39.09" departLane="best" from="800610496" to="-809425538"/>
    <trip id="veh36" type="veh_passenger" depart="40.21" departLane="best" from="-246982751" to="-236471188#1"/>
    <trip id="veh37" type="veh_passenger" depart="41.33" departLane="best" from="171865797#2" to="-246982749#1"/>
    <trip id="veh38" type="veh_passenger" depart="42.44" departLane="best" from="171867131#1" to="800610482#0"/>
    <trip id="veh39" type="veh_passenger" depart="43.56" departLane="best" from="-800610502" to="-186258462#1"/>
    <trip id="veh40" type="veh_passenger" depart="44.68" departLane="best" from="817117729#1" to="133755126#11"/>
    <trip id="veh41" type="veh_passenger" depart="45.79" departLane="best" from="-171865797#10" to="-133755126#4"/>
    <trip id="veh42" type="veh_passenger" depart="46.91" departLane="best" from="-171867128" to="171902842#1"/>
    <trip id="veh43" type="veh_passenger" depart="48.03" departLane="best" from="374529112#2" to="-800715313"/>
    <trip id="veh44" type="veh_passenger" depart="49.15" departLane="best" from="-135530186#4" to="-800610485#0"/>
    <trip id="veh45" type="veh_passenger" depart="50.26" departLane="best" from="812556708" to="135530186#1"/>
    <trip id="veh46" type="veh_passenger" depart="51.38" departLane="best" from="803758035#0" to="713329444#0"/>
    <trip id="veh47" type="veh_passenger" depart="52.50" departLane="best" from="-133637487#0" to="245441027#2"/>
    <trip id="veh48" type="veh_passenger" depart="53.61" departLane="best" from="186258455#2" to="158486424#0"/>
    <trip id="veh49" type="veh_passenger" depart="54.73" departLane="best" from="-246982755#1" to="173655926#7"/>
    <trip id="veh50" type="veh_passenger" depart="55.85" departLane="best" from="-171867130#0" to="-803758018"/>
    <trip id="veh51" type="veh_passenger" depart="56.96" departLane="best" from="-804207577" to="803758015#0"/>
    <trip id="veh52" type="veh_passenger" depart="58.08" departLane="best" from="800384376" to="-246982749#1"/>
    <trip id="veh53" type="veh_passenger" depart="59.20" departLane="best" from="133755118#1" to="-173655938#0"/>
    <trip id="veh55" type="veh_passenger" depart="61.43" departLane="best" from="-306475943#0" to="173655926#5"/>
    <trip id="veh56" type="veh_passenger" depart="62.55" departLane="best" from="171870088" to="-171902837#0"/>
    <trip id="veh57" type="veh_passenger" depart="63.67" departLane="best" from="306475941#0" to="158486424#3"/>
    <trip id="veh58" type="veh_passenger" depart="64.78" departLane="best" from="306475947#1" to="135530186#2"/>
    <trip id="veh59" type="veh_passenger" depart="65.90" departLane="best" from="-122612356#0" to="-543878957"/>
    <trip id="veh61" type="veh_passenger" depart="68.13" departLane="best" from="800384379" to="374533524#5"/>
    <trip id="veh62" type="veh_passenger" depart="69.25" departLane="best" from="-306475946#4" to="-133882909#3"/>
    <trip id="veh63" type="veh_passenger" depart="70.37" departLane="best" from="800384378" to="803757988#0"/>
    <trip id="veh64" type="veh_passenger" depart="71.48" departLane="best" from="-171865792#3" to="133637488"/>
    <trip id="veh65" type="veh_passenger" depart="72.60" departLane="best" from="-158486424#1" to="306475940#0"/>
    <trip id="veh66" type="veh_passenger" depart="73.72" departLane="best" from="306475942#1" to="-171867138#1"/>
    <trip id="veh67" type="veh_passenger" depart="74.84" departLane="best" from="133055393#1" to="171865792#0"/>
    <trip id="veh68" type="veh_passenger" depart="75.95" departLane="best" from="-246982751" to="715685826#1"/>
    <trip id="veh69" type="veh_passenger" depart="77.07" departLane="best" from="-800715314" to="-186258452"/>
    <trip id="veh70" type="veh_passenger" depart="78.19" departLane="best" from="158486424#3" to="246982749#1"/>
    <trip id="veh71" type="veh_passenger" depart="79.30" departLane="best" from="-186254733#1" to="-306475949"/>
    <trip id="veh72" type="veh_passenger" depart="80.42" departLane="best" from="812556707#1" to="173655938#7"/>
    <trip id="veh73" type="veh_passenger" depart="81.54" departLane="best" from="-803758021" to="133755126#5"/>
    <trip id="veh74" type="veh_passenger" depart="82.65" departLane="best" from="-171867136#0" to="-186262687#12"/>
    <trip id="veh75" type="veh_passenger" depart="83.77" departLane="best" from="-706734275#2" to="171867136#0"/>
    <trip id="veh76" type="veh_passenger" depart="84.89" departLane="best" from="-186262687#5" to="800610487#1"/>
    <trip id="veh77" type="veh_passenger" depart="86.00" departLane="best" from="713329439" to="-158486424#3"/>
    <trip id="veh78" type="veh_passenger" depart="87.12" departLane="best" from="-186263433#0" to="186254736#0"/>
    <trip id="veh79" type="veh_passenger" depart="88.24" departLane="best" from="-186258455#1" to="-171870076#1"/>
    <trip id="veh80" type="veh_passenger" depart="89.36" departLane="best" from="122612374#3" to="373896382#1"/>
    <trip id="veh81" type="veh_passenger" depart="90.47" departLane="best" from="-171865797#7" to="-803758015#0"/>
    <trip id="veh82" type="veh_passenger" depart="91.59" departLane="best" from="246982749#0" to="186254736#6"/>
    <trip id="veh83" type="veh_passenger" depart="92.71" departLane="best" from="804217356#1" to="-171865800"/>
    <trip id="veh84" type="veh_passenger" depart="93.82" departLane="best" from="-800610509#1" to="-706734275#3"/>
    <trip id="veh85" type="veh_passenger" depart="94.94" departLane="best" from="713329444#1" to="-236471193#0"/>
    <trip id="veh86" type="veh_passenger" depart="96.06" departLane="best" from="-186250480#4" to="-803758035#1"/>
    <trip id="veh87" type="veh_passenger" depart="97.17" departLane="best" from="-236471193#1" to="800610509#2"/>
    <trip id="veh88" type="veh_passenger" depart="98.29" departLane="best" from="-803758028" to="713329444#1"/>
    <trip id="veh89" type="veh_passenger" depart="99.41" departLane="best" from="171865792#10" to="-133755126#8"/>
    <trip id="veh91" type="veh_passenger" depart="101.64" departLane="best" from="803758030" to="800610510"/>
    <trip id="veh93" type="veh_passenger" depart="103.88" departLane="best" from="133637488" to="-186258455#0"/>
    <trip id="veh95" type="veh_passenger" depart="106.11" departLane="best" from="-800610482#2" to="804217356#11"/>
    <trip id="veh96" type="veh_passenger" depart="107.23" departLane="best" from="-246982751" to="373896382#0"/>
    <trip id="veh97" type="veh_passenger" depart="108.34" departLane="best" from="-804207578#0" to="-800715314"/>
    <trip id="veh98" type="veh_passenger" depart="109.46" departLane="best" from="803758018" to="812556707#1"/>
    <trip id="veh99" type="veh_passenger" depart="110.58" departLane="best" from="171865792#7" to="236471196"/>
    <trip id="veh100" type="veh_passenger" depart="111.69" departLane="best" from="-171902839#0" to="-306475942#1"/>
    <trip id="veh101" type="veh_passenger" depart="112.81" departLane="best" from="803758030" to="171867129"/>
    <trip id="veh102" type="veh_passenger" depart="113.93" departLane="best" from="158486424#6" to="288926324#0"/>
    <trip id="veh103" type="veh_passenger" depart="115.05" departLane="best" from="-133882909#2" to="171867131#0"/>
    <trip id="veh104" type="veh_passenger" depart="116.16" departLane="best" from="133755118#3" to="706734275#0"/>
    <trip id="veh105" type="veh_passenger" depart="117.28" departLane="best" from="-171902839#3" to="803758022"/>
    <trip id="veh106" type="veh_passenger" depart="118.40" departLane="best" from="-171865791" to="-173655938#8"/>
    <trip id="veh107" type="veh_passenger" depart="119.51" departLane="best" from="171867138#1" to="186254736#8"/>
    <trip id="veh108" type="veh_passenger" depart="120.63" departLane="best" from="-186262688#2" to="-171867135#0"/>
    <trip id="veh109" type="veh_passenger" depart="121.75" departLane="best" from="171867138#1" to="171902837#1"/>
    <trip id="veh110" type="veh_passenger" depart="122.86" departLane="best" from="-800669886" to="171867131#0"/>
    <trip id="veh111" type="veh_passenger" depart="123.98" departLane="best" from="133755133#1" to="800669875"/>
    <trip id="veh112" type="veh_passenger" depart="125.10" departLane="best" from="-186254736#3" to="236471195#0"/>
    <trip id="veh113" type="veh_passenger" depart="126.21" departLane="best" from="186254736#4" to="-306475943#2"/>
    <trip id="veh114" type="veh_passenger" depart="127.33" departLane="best" from="-373896382#13" to="288926324#4"/>
    <trip id="veh115" type="veh_passenger" depart="128.45" departLane="best" from="-158486424#5" to="-809425538"/>
    <trip id="veh116" type="veh_passenger" depart="129.57" departLane="best" from="817230302" to="812556708"/>
    <trip id="veh117" type="veh_passenger" depart="130.68" departLane="best" from="-158486424#6" to="-186258455#0"/>
    <trip id="veh118" type="veh_passenger" depart="131.80" departLane="best" from="-246982751" to="800669864"/>
    <trip id="veh119" type="veh_passenger" depart="132.92" departLane="best" from="800384381" to="800384380"/>
    <trip id="veh120" type="veh_passenger" depart="134.03" departLane="best" from="-800384387#3" to="-171902839#3"/>
    <trip id="veh121" type="veh_passenger" depart="135.15" departLane="best" from="374533525#0" to="186263433#0"/>
    <trip id="veh122" type="veh_passenger" depart="136.27" departLane="best" from="171902831#0" to="804217356#4"/>
    <trip id="veh123" type="veh_passenger" depart="137.38" departLane="best" from="186250480#3" to="-133637484#1"/>
    <trip id="veh124" type="veh_passenger" depart="138.50" departLane="best" from="374532416#10" to="-306475943#1"/>
    <trip id="veh125" type="veh_passenger" depart="139.62" departLane="best" from="186250797#1" to="800669881"/>
    <trip id="veh126" type="veh_passenger" depart="140.74" departLane="best" from="-171870081#1" to="-171867131#0"/>
    <trip id="veh127" type="veh_passenger" depart="141.85" departLane="best" from="-171867127#1" to="171865792#2"/>
    <trip id="veh128" type="veh_passenger" depart="142.97" departLane="best" from="-246989092#0" to="171870085#0"/>
    <trip id="veh129" type="veh_passenger" depart="144.09" departLane="best" from="236471195#1" to="-186254736#1"/>
    <trip id="veh130" type="veh_passenger" depart="145.20" departLane="best" from="173655926#0" to="-246982749#2"/>
    <trip id="veh131" type="veh_passenger" depart="146.32" departLane="best" from="133637883#2" to="800610487#1"/>
    <trip id="veh132" type="veh_passenger" depart="147.44" departLane="best" from="706318010" to="-171865797#2"/>
    <trip id="veh133" type="veh_passenger" depart="148.55" departLane="best" from="-800715314" to="-286438371#1"/>
    <trip id="veh134" type="veh_passenger" depart="149.67" departLane="best" from="-122612374#1" to="306475944#0"/>
    <trip id="veh135" type="veh_passenger" depart="150.79" departLane="best" from="173655926#3" to="-246982749#0"/>
    <trip id="veh136" type="veh_passenger" depart="151.90" departLane="best" from="246989092#0" to="171865792#11"/>
    <trip id="veh137" type="veh_passenger" depart="153.02" departLane="best" from="-803757990" to="-133637484#3"/>
    <trip id="veh138" type="veh_passenger" depart="154.14" departLane="best" from="-158486424#8" to="800384384"/>
    <trip id="veh139" type="veh_passenger" depart="155.26" departLane="best" from="800610486" to="171865779"/>
    <trip id="veh140" type="veh_passenger" depart="156.37" departLane="best" from="-171902835#0" to="-171867138#0"/>
    <trip id="veh141" type="veh_passenger" depart="157.49" departLane="best" from="-306475947#0" to="800610482#2"/>
    <trip id="veh142" type="veh_passenger" depart="158.61" departLane="best" from="374529118#3" to="713329444#0"/>
    <trip id="veh143" type="veh_passenger" depart="159.72" departLane="best" from="800610482#2" to="-186254736#9"/>
    <trip id="veh144" type="veh_passenger" depart="160.84" departLane="best" from="-236471193#1" to="-171867126#4"/>
    <trip id="veh145" type="veh_passenger" depart="161.96" departLane="best" from="306475947#2" to="800384385"/>
    <trip id="veh146" type="veh_passenger" depart="163.07" departLane="best" from="-800610510" to="171902839#1"/>
    <trip id="veh147" type="veh_passenger" depart="164.19" departLane="best" from="-171902839#0" to="800669860"/>
    <trip id="veh148" type="veh_passenger" depart="165.31" departLane="best" from="713329445#2" to="804207577"/>
    <trip id="veh149" type="veh_passenger" depart="166.43" departLane="best" from="374529122#0" to="800384382"/>
    <trip id="veh150" type="veh_passenger" depart="167.54" departLane="best" from="-133637886" to="246989083#2"/>
    <trip id="veh152" type="veh_passenger" depart="169.78" departLane="best" from="374529120#1" to="713329445#2"/>
    <trip id="veh153" type="veh_passenger" depart="170.89" departLane="best" from="374529122#0" to="-246982755#1"/>
    <trip id="veh154" type="veh_passenger" depart="172.01" departLane="best" from="373896382#3" to="-171867127#2"/>
    <trip id="veh155" type="veh_passenger" depart="173.13" departLane="best" from="715685826#1" to="706734276#4"/>
    <trip id="veh156" type="veh_passenger" depart="174.24" departLane="best" from="-186262687#10" to="374532416#1"/>
    <trip id="veh157" type="veh_passenger" depart="175.36" departLane="best" from="-810367888" to="-306475946#2"/>
    <trip id="veh158" type="veh_passenger" depart="176.48" departLane="best" from="374529118#2" to="-186262687#4"/>
    <trip id="veh159" type="veh_passenger" depart="177.59" departLane="best" from="-133637885" to="-186250792#1"/>
    <trip id="veh160" type="veh_passenger" depart="178.71" departLane="best" from="803758029#0" to="-288926324#1"/>
    <trip id="veh161" type="veh_passenger" depart="179.83" departLane="best" from="173655932#0" to="-800610502"/>
    <trip id="veh162" type="veh_passenger" depart="180.95" departLane="best" from="804207589#2" to="135530186#8"/>
    <trip id="veh163" type="veh_passenger" depart="182.06" departLane="best" from="800669881" to="-171867131#0"/>
    <trip id="veh164" type="veh_passenger" depart="183.18" departLane="best" from="803758035#0" to="-173655938#0"/>
    <trip id="veh165" type="veh_passenger" depart="184.30" departLane="best" from="803758024" to="-246982755#0"/>
    <trip id="veh166" type="veh_passenger" depart="185.41" departLane="best" from="-171867127#3" to="-803758017"/>
    <trip id="veh167" type="veh_passenger" depart="186.53" departLane="best" from="245441809#1" to="-306475951"/>
    <trip id="veh168" type="veh_passenger" depart="187.65" departLane="best" from="171870086#0" to="133755126#14"/>
    <trip id="veh169" type="veh_passenger" depart="188.76" departLane="best" from="-800610487#1" to="171867127#2"/>
    <trip id="veh170" type="veh_passenger" depart="189.88" departLane="best" from="-245441027#4" to="186276679#0"/>
    <trip id="veh171" type="veh_passenger" depart="191.00" departLane="best" from="-122612356#1" to="800610509#5"/>
    <trip id="veh172" type="veh_passenger" depart="192.11" departLane="best" from="158486424#2" to="245441027#0"/>
    <trip id="veh173" type="veh_passenger" depart="193.23" departLane="best" from="246989092#1" to="186254736#3"/>
    <trip id="veh174" type="veh_passenger" depart="194.35" departLane="best" from="-800384385" to="-158486424#2"/>
    <trip id="veh175" type="veh_passenger" depart="195.47" departLane="best" from="186250798" to="-706318010"/>
    <trip id="veh177" type="veh_passenger" depart="197.70" departLane="best" from="245441027#0" to="-306475943#2"/>
    <trip id="veh179" type="veh_passenger" depart="199.93" departLane="best" from="-800610509#1" to="-306475942#0"/>
    <trip id="veh180" type="veh_passenger" depart="201.05" departLane="best" from="-171867138#0" to="-800669887"/>
    <trip id="veh181" type="veh_passenger" depart="202.17" departLane="best" from="800669884" to="186258449"/>
    <trip id="veh182" type="veh_passenger" depart="203.28" departLane="best" from="800610485#1" to="171902835#2"/>
    <trip id="veh183" type="veh_passenger" depart="204.40" departLane="best" from="-306475944#0" to="171865789"/>
    <trip id="veh184" type="veh_passenger" depart="205.52" departLane="best" from="-122612356#0" to="-290520227"/>
    <trip id="veh185" type="veh_passenger" depart="206.64" departLane="best" from="-803758013" to="171867130#0"/>
    <trip id="veh186" type="veh_passenger" depart="207.75" departLane="best" from="186250480#3" to="-812556708"/>
    <trip id="veh187" type="veh_passenger" depart="208.87" departLane="best" from="-803758027" to="-186258455#0"/>
    <trip id="veh188" type="veh_passenger" depart="209.99" departLane="best" from="122612374#3" to="800610484"/>
    <trip id="veh189" type="veh_passenger" depart="211.10" departLane="best" from="374529118#2" to="-173655926#1"/>
    <trip id="veh190" type="veh_passenger" depart="212.22" departLane="best" from="-171865792#2" to="133755126#3"/>
    <trip id="veh191" type="veh_passenger" depart="213.34" departLane="best" from="374532416#11" to="288926324#3"/>
    <trip id="veh192" type="veh_passenger" depart="214.45" departLane="best" from="186254736#5" to="-186262687#12"/>
    <trip id="veh193" type="veh_passenger" depart="215.57" departLane="best" from="-236471187#1" to="133055393#0"/>
    <trip id="veh194" type="veh_passenger" depart="216.69" departLane="best" from="706734274#0" to="-158486424#5"/>
    <trip id="veh195" type="veh_passenger" depart="217.80" departLane="best" from="-800669877" to="171904517"/>
    <trip id="veh196" type="veh_passenger" depart="218.92" departLane="best" from="-186250795" to="186262687#7"/>
    <trip id="veh197" type="veh_passenger" depart="220.04" departLane="best" from="133637887#1" to="-236471187#0"/>
    <trip id="veh198" type="veh_passenger" depart="221.16" departLane="best" from="186250480#5" to="-122612374#4"/>
    <trip id="veh199" type="veh_passenger" depart="222.27" departLane="best" from="288926324#3" to="306475943#2"/>
    <trip id="veh200" type="veh_passenger" depart="223.39" departLane="best" from="-171867127#1" to="-803757988#0"/>
    <trip id="veh202" type="veh_passenger" depart="225.62" departLane="best" from="-804207581" to="374529120#0"/>
    <trip id="veh203" type="veh_passenger" depart="226.74" departLane="best" from="171870075#0" to="803757990"/>
    <trip id="veh204" type="veh_passenger" depart="227.86" departLane="best" from="800384389" to="171902831#2"/>
    <trip id="veh205" type="veh_passenger" depart="228.97" departLane="best" from="245441027#0" to="133755118#5"/>
    <trip id="veh206" type="veh_passenger" depart="230.09" departLane="best" from="374533524#4" to="171865789"/>
    <trip id="veh207" type="veh_passenger" depart="231.21" departLane="best" from="800610482#0" to="246989098#1"/>
    <trip id="veh208" type="veh_passenger" depart="232.32" departLane="best" from="133055393#0" to="-245441030"/>
    <trip id="veh209" type="veh_passenger" depart="233.44" departLane="best" from="-236471188#1" to="173655926#4"/>
    <trip id="veh210" type="veh_passenger" depart="234.56" departLane="best" from="306475942#1" to="133755133#0"/>
    <trip id="veh211" type="veh_passenger" depart="235.68" departLane="best" from="171902842#0" to="-286437949"/>
    <trip id="veh212" type="veh_passenger" depart="236.79" departLane="best" from="-171865779" to="-290520226"/>
    <trip id="veh213" type="veh_passenger" depart="237.91" departLane="best" from="158486424#3" to="-171870084#3"/>
    <trip id="veh214" type="veh_passenger" depart="239.03" departLane="best" from="186263438#0" to="-135530186#5"/>
    <trip id="veh216" type="veh_passenger" depart="241.26" departLane="best" from="-800669880#0" to="-186254736#6"/>
    <trip id="veh217" type="veh_passenger" depart="242.38" departLane="best" from="-800669887" to="800610487#0"/>
    <trip id="veh218" type="veh_passenger" depart="243.49" departLane="best" from="171867131#0" to="186262687#6"/>
    <trip id="veh219" type="veh_passenger" depart="244.61" departLane="best" from="706734276#2" to="306475942#0"/>
    <trip id="veh220" type="veh_passenger" depart="245.73" departLane="best" from="-800610482#3" to="-122612374#4"/>
    <trip id="veh222" type="veh_passenger" depart="247.96" departLane="best" from="706734275#1" to="803758015#0"/>
    <trip id="veh223" type="veh_passenger" depart="249.08" departLane="best" from="-800669885" to="286438372"/>
    <trip id="veh224" type="veh_passenger" depart="250.20" departLane="best" from="171865779" to="171870084#2"/>
    <trip id="veh225" type="veh_passenger" depart="251.31" departLane="best" from="-186262687#0" to="-186258462#1"/>
    <trip id="veh226" type="veh_passenger" depart="252.43" departLane="best" from="-803758019" to="-133755117#1"/>
    <trip id="veh227" type="veh_passenger" depart="253.55" departLane="best" from="-706734274#2" to="186258453"/>
    <trip id="veh228" type="veh_passenger" depart="254.66" departLane="best" from="-800610509#3" to="-171904517"/>
    <trip id="veh230" type="veh_passenger" depart="256.90" departLane="best" from="171902839#2" to="-133637887#1"/>
    <trip id="veh231" type="veh_passenger" depart="258.01" departLane="best" from="-800610496" to="171865797#5"/>
    <trip id="veh232" type="veh_passenger" depart="259.13" departLane="best" from="-133637887#2" to="173655932#1"/>
    <trip id="veh234" type="veh_passenger" depart="261.37" departLane="best" from="-133755126#7" to="-800610482#2"/>
    <trip id="veh235" type="veh_passenger" depart="262.48" departLane="best" from="-186258452" to="-646246743"/>
    <trip id="veh236" type="veh_passenger" depart="263.60" departLane="best" from="306475940#0" to="-800610482#2"/>
    <trip id="veh237" type="veh_passenger" depart="264.72" departLane="best" from="288926324#4" to="374533524#5"/>
    <trip id="veh238" type="veh_passenger" depart="265.83" departLane="best" from="-245441027#0" to="-171865792#10"/>
    <trip id="veh239" type="veh_passenger" depart="266.95" departLane="best" from="-133637883#1" to="158486424#3"/>
    <trip id="veh241" type="veh_passenger" depart="269.18" departLane="best" from="173655938#7" to="306475949"/>
    <trip id="veh242" type="veh_passenger" depart="270.30" departLane="best" from="186250480#0" to="290520225#1"/>
    <trip id="veh243" type="veh_passenger" depart="271.42" departLane="best" from="803757990" to="-186250799#0"/>
    <trip id="veh244" type="veh_passenger" depart="272.54" departLane="best" from="-133637883#2" to="-171902835#4"/>
    <trip id="veh245" type="veh_passenger" depart="273.65" departLane="best" from="-171867137#0" to="186254736#1"/>
    <trip id="veh246" type="veh_passenger" depart="274.77" departLane="best" from="171865797#5" to="-186258459"/>
    <trip id="veh247" type="veh_passenger" depart="275.89" departLane="best" from="186262688#0" to="306475942#2"/>
    <trip id="veh248" type="veh_passenger" depart="277.00" departLane="best" from="-171904519#1" to="171870086#1"/>
    <trip id="veh249" type="veh_passenger" depart="278.12" departLane="best" from="288926324#0" to="-171867130#3"/>
    <trip id="veh250" type="veh_passenger" depart="279.24" departLane="best" from="374532416#12" to="803758026#1"/>
    <trip id="veh251" type="veh_passenger" depart="280.35" departLane="best" from="-171867127#2" to="-133637887#0"/>
    <trip id="veh252" type="veh_passenger" depart="281.47" departLane="best" from="-306475949" to="186258452"/>
    <trip id="veh253" type="veh_passenger" depart="282.59" departLane="best" from="803758019" to="-800610498#0"/>
    <trip id="veh254" type="veh_passenger" depart="283.70" departLane="best" from="236471193#0" to="-158486424#9"/>
    <trip id="veh255" type="veh_passenger" depart="284.82" departLane="best" from="186262687#12" to="171902842#1"/>
    <trip id="veh256" type="veh_passenger" depart="285.94" departLane="best" from="-171867126#2" to="306475945"/>
    <trip id="veh257" type="veh_passenger" depart="287.06" departLane="best" from="706734274#1" to="171870081#1"/>
    <trip id="veh258" type="veh_passenger" depart="288.17" departLane="best" from="-171867136#0" to="804217356#1"/>
    <trip id="veh259" type="veh_passenger" depart="289.29" departLane="best" from="306475950" to="-713329445#1"/>
    <trip id="veh261" type="veh_passenger" depart="291.52" departLane="best" from="133755124" to="-706734276#1"/>
    <trip id="veh262" type="veh_passenger" depart="292.64" departLane="best" from="706734274#0" to="374532416#5"/>
    <trip id="veh263" type="veh_passenger" depart="293.76" departLane="best" from="-171867126#7" to="803758022"/>
    <trip id="veh264" type="veh_passenger" depart="294.87" departLane="best" from="173655926#1" to="374533524#2"/>
    <trip id="veh265" type="veh_passenger" depart="295.99" departLane="best" from="186263438#1" to="-803758019"/>
    <trip id="veh266" type="veh_passenger" depart="297.11" departLane="best" from="246982755#1" to="803758027"/>
    <trip id="veh267" type="veh_passenger" depart="298.22" departLane="best" from="-246989083#3" to="374529120#7"/>
    <trip id="veh268" type="veh_passenger" depart="299.34" departLane="best" from="158486424#1" to="133637487#4"/>