<?xml version="1.0" encoding="UTF-8"?>

<!-- generated on Thu Dec 24 17:38:28 2020 by Eclipse SUMO duarouter Version 1.7.0
<configuration xmlns:xsi="http://www.w3.org/2001/XMLSchema-instance" xsi:noNamespaceSchemaLocation="http://sumo.dlr.de/xsd/duarouterConfiguration.xsd">

    <input>
        <net-file value="/home/shashwath/Sumo/2020-12-24-17-38-13/osm.net.xml"/>
        <route-files value="/home/shashwath/Sumo/2020-12-24-17-38-13/osm.bus.trips.xml"/>
    </input>

    <output>
        <output-file value="/home/shashwath/Sumo/2020-12-24-17-38-13/osm.bus.trips.xml.tmp"/>
        <write-trips value="true"/>
    </output>

    <time>
        <begin value="0"/>
        <end value="3600"/>
    </time>

    <report>
        <no-warnings value="true"/>
        <ignore-errors value="true"/>
        <no-step-log value="true"/>
    </report>

</configuration>
-->

<routes xmlns:xsi="http://www.w3.org/2001/XMLSchema-instance" xsi:noNamespaceSchemaLocation="http://sumo.dlr.de/xsd/routes_file.xsd">
    <vType id="bus_bus" vClass="bus"/>
    <trip id="bus0" type="bus_bus" depart="0.00" departLane="best" from="246989087#1" to="186258453"/>
    <trip id="bus1" type="bus_bus" depart="3.35" departLane="best" from="-800669887" to="-133755117#2"/>
    <trip id="bus2" type="bus_bus" depart="6.70" departLane="best" from="-186262687#1" to="133755123"/>
    <trip id="bus3" type="bus_bus" depart="10.05" departLane="best" from="-133637887#1" to="-186254733#1"/>
    <trip id="bus4" type="bus_bus" depart="13.40" departLane="best" from="186250480#0" to="158486424#9"/>
    <trip id="bus5" type="bus_bus" depart="16.75" departLane="best" from="-186262687#11" to="171867136#2"/>
    <trip id="bus6" type="bus_bus" depart="20.11" departLane="best" from="374529120#11" to="186262688#1"/>
    <trip id="bus7" type="bus_bus" depart="23.46" departLane="best" from="-706734275#2" to="-171902839#3"/>
    <trip id="bus8" type="bus_bus" depart="26.81" departLane="best" from="803758018" to="-706734274#1"/>
    <trip id="bus9" type="bus_bus" depart="30.16" departLane="best" from="706318010" to="171870085#0"/>
    <trip id="bus10" type="bus_bus" depart="33.51" departLane="best" from="374529120#12" to="246982755#0"/>
    <trip id="bus11" type="bus_bus" depart="36.86" departLane="best" from="158486424#0" to="803758036"/>
    <trip id="bus12" type="bus_bus" depart="40.21" departLane="best" from="-800610482#0" to="171865792#12"/>
    <trip id="bus13" type="bus_bus" depart="43.56" departLane="best" from="374533523#1" to="171902839#0"/>
    <trip id="bus14" type="bus_bus" depart="46.91" departLane="best" from="713329439" to="171867128"/>
    <trip id="bus15" type="bus_bus" depart="50.26" departLane="best" from="186263438#0" to="-133755126#3"/>
    <trip id="bus16" type="bus_bus" depart="53.61" departLane="best" from="-186262687#7" to="-306475941#0"/>
    <trip id="bus17" type="bus_bus" depart="56.96" departLane="best" from="-171865792#0" to="-186262688#2"/>
    <trip id="bus18" type="bus_bus" depart="60.32" departLane="best" from="173655926#3" to="-800384383"/>
    <trip id="bus19" type="bus_bus" depart="63.67" departLane="best" from="-800384387#2" to="-186258452"/>
    <trip id="bus20" type="bus_bus" depart="67.02" departLane="best" from="-246989083#3" to="800669877"/>
    <trip id="bus21" type="bus_bus" depart="70.37" departLane="best" from="173655938#7" to="171902829#0"/>
    <trip id="bus22" type="bus_bus" depart="73.72" departLane="best" from="-173655926#4" to="246982751"/>
    <trip id="bus23" type="bus_bus" depart="77.07" departLane="best" from="-171904518" to="-800610482#1"/>
    <trip id="bus24" type="bus_bus" depart="80.42" departLane="best" from="804217356#9" to="173655932#0"/>
    <trip id="bus25" type="bus_bus" depart="83.77" departLane="best" from="171865797#0" to="186262687#0"/>
    <trip id="bus26" type="bus_bus" depart="87.12" departLane="best" from="546663980" to="306475947#1"/>
    <trip id="bus27" type="bus_bus" depart="90.47" departLane="best" from="-186262687#8" to="-133755118#0"/>
    <trip id="bus28" type="bus_bus" depart="93.82" departLane="best" from="-186258455#0" to="800669887"/>
    <trip id="bus29" type="bus_bus" depart="97.17" departLane="best" from="186250792#0" to="-800610496"/>
    <trip id="bus30" type="bus_bus" depart="100.53" departLane="best" from="800610495#1" to="-809425538"/>
    <trip id="bus31" type="bus_bus" depart="103.88" departLane="best" from="-246989083#0" to="-236471193#1"/>
    <trip id="bus32" type="bus_bus" depart="107.23" departLane="best" from="171865797#3" to="-246982755#0"/>
    <trip id="bus33" type="bus_bus" depart="110.58" departLane="best" from="171867131#2" to="800610481"/>
    <trip id="bus34" type="bus_bus" depart="113.93" departLane="best" from="-171865797#11" to="-133755126#4"/>
    <trip id="bus35" type="bus_bus" depart="117.28" departLane="best" from="-171867129" to="171902843#1"/>
    <trip id="bus36" type="bus_bus" depart="120.63" departLane="best" from="373896382#9" to="-800669888"/>
    <trip id="bus37" type="bus_bus" depart="123.98" departLane="best" from="-135530186#5" to="-800610482#3"/>
    <trip id="bus38" type="bus_bus" depart="127.33" departLane="best" from="812556708" to="135530186#10"/>
    <trip id="bus39" type="bus_bus" depart="130.68" departLane="best" from="803758035#0" to="706734276#4"/>
    <trip id="bus40" type="bus_bus" depart="134.03" departLane="best" from="-133637487#0" to="245441027#5"/>
    <trip id="bus41" type="bus_bus" depart="137.38" departLane="best" from="186258459" to="158486424#0"/>
    <trip id="bus42" type="bus_bus" depart="140.74" departLane="best" from="-246989083#3" to="173655932#1"/>
    <trip id="bus43" type="bus_bus" depart="144.09" departLane="best" from="-171867130#2" to="-803758017"/>
    <trip id="bus44" type="bus_bus" depart="147.44" departLane="best" from="-804207576" to="803758015#0"/>
    <trip id="bus45" type="bus_bus" depart="150.79" departLane="best" from="715685827" to="-246982755#1"/>
    <trip id="bus46" type="bus_bus" depart="154.14" departLane="best" from="133755118#1" to="-173655938#3"/>
    <trip id="bus47" type="bus_bus" depart="157.49" departLane="best" from="800610494" to="715685821"/>
    <trip id="bus48" type="bus_bus" depart="160.84" departLane="best" from="-306475944#1" to="173655926#7"/>
    <trip id="bus49" type="bus_bus" depart="164.19" departLane="best" from="306475942#0" to="158486424#3"/>
    <trip id="bus50" type="bus_bus" depart="167.54" departLane="best" from="306475949" to="135530186#2"/>
    <trip id="bus51" type="bus_bus" depart="170.89" departLane="best" from="-122612356#0" to="-374530997#0"/>
    <trip id="bus53" type="bus_bus" depart="177.59" departLane="best" from="800384378" to="374533524#3"/>
    <trip id="bus54" type="bus_bus" depart="180.95" departLane="best" from="-306475948" to="-133882909#3"/>
    <trip id="bus55" type="bus_bus" depart="184.30" departLane="best" from="800384377" to="803757987"/>
    <trip id="bus56" type="bus_bus" depart="187.65" departLane="best" from="-171865792#7" to="133637488"/>
    <trip id="bus57" type="bus_bus" depart="191.00" departLane="best" from="-158486424#2" to="306475941#1"/>
    <trip id="bus58" type="bus_bus" depart="194.35" departLane="best" from="306475943#1" to="-171870075#0"/>
    <trip id="bus59" type="bus_bus" depart="197.70" departLane="best" from="133055393#0" to="171865792#10"/>
    <trip id="bus60" type="bus_bus" depart="201.05" departLane="best" from="-800715313" to="-186258455#1"/>
    <trip id="bus61" type="bus_bus" depart="204.40" departLane="best" from="-186254736#1" to="-373896382#1"/>
    <trip id="bus62" type="bus_bus" depart="207.75" departLane="best" from="812556707#1" to="186250480#0"/>
    <trip id="bus63" type="bus_bus" depart="211.10" departLane="best" from="-803758021" to="133755126#6"/>
    <trip id="bus64" type="bus_bus" depart="214.45" departLane="best" from="-186262687#8" to="800610486"/>
    <trip id="bus65" type="bus_bus" depart="217.80" departLane="best" from="-186263438#0" to="186254736#3"/>
    <trip id="bus66" type="bus_bus" depart="221.16" departLane="best" from="-186258457" to="-171870081#1"/>
    <trip id="bus67" type="bus_bus" depart="224.51" departLane="best" from="800669875" to="171867126#5"/>
    <trip id="bus68" type="bus_bus" depart="227.86" departLane="best" from="-171865797#8" to="-803758014"/>
    <trip id="bus69" type="bus_bus" depart="231.21" departLane="best" from="-800715313" to="-817230302"/>
    <trip id="bus70" type="bus_bus" depart="234.56" departLane="best" from="246982751" to="186254736#8"/>
    <trip id="bus71" type="bus_bus" depart="237.91" departLane="best" from="804217356#1" to="-171867126#0"/>
    <trip id="bus72" type="bus_bus" depart="241.26" departLane="best" from="-800610509#0" to="-706734275#1"/>
    <trip id="bus73" type="bus_bus" depart="244.61" departLane="best" from="713329439" to="-236471196"/>
    <trip id="bus74" type="bus_bus" depart="247.96" departLane="best" from="-245441027#1" to="800610509#1"/>
    <trip id="bus75" type="bus_bus" depart="251.31" departLane="best" from="-803758027" to="713329439"/>
    <trip id="bus76" type="bus_bus" depart="254.66" departLane="best" from="171865792#10" to="-133755126#8"/>
    <trip id="bus78" type="bus_bus" depart="261.37" departLane="best" from="803758030" to="800610509#5"/>
    <trip id="bus79" type="bus_bus" depart="264.72" departLane="best" from="706318011" to="-171904519#2"/>
    <trip id="bus80" type="bus_bus" depart="268.07" departLane="best" from="133637488" to="-186258456"/>
    <trip id="bus81" type="bus_bus" depart="271.42" departLane="best" from="-800610502" to="-135530186#0"/>
    <trip id="bus82" type="bus_bus" depart="274.77" departLane="best" from="-800610482#0" to="804217356#11"/>
    <trip id="bus83" type="bus_bus" depart="278.12" departLane="best" from="-804207578#0" to="-800715313"/>
    <trip id="bus84" type="bus_bus" depart="281.47" departLane="best" from="803758018" to="812556707#1"/>
    <trip id="bus85" type="bus_bus" depart="284.82" departLane="best" from="171865792#8" to="245441027#2"/>
    <trip id="bus86" type="bus_bus" depart="288.17" departLane="best" from="-171902839#2" to="-306475943#2"/>
    <trip id="bus87" type="bus_bus" depart="291.52" departLane="best" from="803758029#1" to="171867130#0"/>
    <trip id="bus88" type="bus_bus" depart="294.87" departLane="best" from="158486424#6" to="288926324#3"/>
    <trip id="bus89" type="bus_bus" depart="298.22" departLane="best" from="-133882909#3" to="171867131#1"/>
    <trip id="bus90" type="bus_bus" depart="301.58" departLane="best" from="133755118#3" to="706734274#1"/>
    <trip id="bus91" type="bus_bus" depart="304.93" departLane="best" from="-171902841#0" to="803758022"/>
    <trip id="bus92" type="bus_bus" depart="308.28" departLane="best" from="-171865792#0" to="-186250480#2"/>
    <trip id="bus93" type="bus_bus" depart="311.63" departLane="best" from="171870075#1" to="186258449"/>
    <trip id="bus94" type="bus_bus" depart="314.98" departLane="best" from="800384387#5" to="-236471193#1"/>
    <trip id="bus95" type="bus_bus" depart="318.33" departLane="best" from="171870075#0" to="171902839#1"/>
    <trip id="bus96" type="bus_bus" depart="321.68" departLane="best" from="-800669884" to="171867131#1"/>
    <trip id="bus97" type="bus_bus" depart="325.03" departLane="best" from="-186254736#5" to="236471196"/>
    <trip id="bus98" type="bus_bus" depart="328.38" departLane="best" from="-373896382#2" to="290520225#1"/>
    <trip id="bus99" type="bus_bus" depart="331.73" departLane="best" from="-158486424#6" to="-804207582"/>
    <trip id="bus100" type="bus_bus" depart="335.08" departLane="best" from="817230302" to="812556708"/>
    <trip id="bus101" type="bus_bus" depart="338.43" departLane="best" from="-158486424#7" to="-186258455#2"/>
    <trip id="bus102" type="bus_bus" depart="341.79" departLane="best" from="-246989083#1" to="800669863"/>
    <trip id="bus103" type="bus_bus" depart="345.14" departLane="best" from="-800384387#2" to="-171902841#0"/>
    <trip id="bus104" type="bus_bus" depart="348.49" departLane="best" from="374533524#5" to="186263433#2"/>
    <trip id="bus105" type="bus_bus" depart="351.84" departLane="best" from="171902831#2" to="804217356#4"/>
    <trip id="bus106" type="bus_bus" depart="355.19" departLane="best" from="374530997#0" to="-306475945"/>
    <trip id="bus107" type="bus_bus" depart="358.54" departLane="best" from="186250799#0" to="800669880#1"/>
    <trip id="bus108" type="bus_bus" depart="361.89" departLane="best" from="-171870084#0" to="-171867131#2"/>
    <trip id="bus109" type="bus_bus" depart="365.24" departLane="best" from="-286438371#0" to="171870086#0"/>
    <trip id="bus110" type="bus_bus" depart="368.59" departLane="best" from="245441027#1" to="-186254736#5"/>
    <trip id="bus111" type="bus_bus" depart="371.94" departLane="best" from="173655926#1" to="-246982755#1"/>
    <trip id="bus112" type="bus_bus" depart="375.29" departLane="best" from="133637883#2" to="800610486"/>
    <trip id="bus113" type="bus_bus" depart="378.64" departLane="best" from="706318004#1" to="-171865797#3"/>
    <trip id="bus114" type="bus_bus" depart="382.00" departLane="best" from="-800715313" to="-288926324#2"/>
    <trip id="bus115" type="bus_bus" depart="385.35" departLane="best" from="-122612374#1" to="306475946#1"/>
    <trip id="bus116" type="bus_bus" depart="388.70" departLane="best" from="173655926#5" to="-246982751"/>
    <trip id="bus117" type="bus_bus" depart="392.05" departLane="best" from="246989098#1" to="171865792#12"/>
    <trip id="bus118" type="bus_bus" depart="395.40" departLane="best" from="-803757988#2" to="-133637484#3"/>
    <trip id="bus119" type="bus_bus" depart="398.75" departLane="best" from="-158486424#9" to="800384382"/>
    <trip id="bus120" type="bus_bus" depart="402.10" departLane="best" from="800610485#1" to="171865779"/>
    <trip id="bus121" type="bus_bus" depart="405.45" departLane="best" from="-171902835#2" to="-171867138#1"/>
    <trip id="bus122" type="bus_bus" depart="408.80" departLane="best" from="-306475949" to="800610482#0"/>
    <trip id="bus123" type="bus_bus" depart="412.15" departLane="best" from="374529115" to="706734276#4"/>
    <trip id="bus124" type="bus_bus" depart="415.50" departLane="best" from="800610482#0" to="-186258453"/>
    <trip id="bus125" type="bus_bus" depart="418.86" departLane="best" from="-245441027#0" to="-171867126#6"/>
    <trip id="bus126" type="bus_bus" depart="422.21" departLane="best" from="306475951" to="800384384"/>
    <trip id="bus127" type="bus_bus" depart="425.56" departLane="best" from="-800610509#4" to="171902839#2"/>
    <trip id="bus129" type="bus_bus" depart="432.26" departLane="best" from="713329445#1" to="804207577"/>
    <trip id="bus130" type="bus_bus" depart="435.61" departLane="best" from="374529120#7" to="800384381"/>
    <trip id="bus131" type="bus_bus" depart="438.96" departLane="best" from="-133637886" to="246989087#1"/>
    <trip id="bus132" type="bus_bus" depart="442.31" departLane="best" from="-706318010" to="800669860"/>
    <trip id="bus133" type="bus_bus" depart="445.66" departLane="best" from="374529118#7" to="713329445#0"/>
    <trip id="bus134" type="bus_bus" depart="449.01" departLane="best" from="374529120#7" to="-246989083#3"/>
    <trip id="bus135" type="bus_bus" depart="452.36" departLane="best" from="373896382#3" to="-171867128"/>
    <trip id="bus137" type="bus_bus" depart="459.07" departLane="best" from="-186262687#14" to="374530997#0"/>
    <trip id="bus138" type="bus_bus" depart="462.42" departLane="best" from="-809425539" to="-306475947#1"/>
    <trip id="bus139" type="bus_bus" depart="465.77" departLane="best" from="374529112#3" to="-186262687#7"/>
    <trip id="bus140" type="bus_bus" depart="469.12" departLane="best" from="-588939865" to="713329445#0"/>
    <trip id="bus141" type="bus_bus" depart="472.47" departLane="best" from="803758028" to="-288926324#4"/>
    <trip id="bus143" type="bus_bus" depart="479.17" departLane="best" from="804207589#1" to="158486424#0"/>
    <trip id="bus144" type="bus_bus" depart="482.52" departLane="best" from="800669880#1" to="-171867131#2"/>
    <trip id="bus145" type="bus_bus" depart="485.87" departLane="best" from="803758024" to="-246989083#1"/>
    <trip id="bus146" type="bus_bus" depart="489.22" departLane="best" from="-171867128" to="-803758017"/>
    <trip id="bus147" type="bus_bus" depart="492.57" departLane="best" from="246982749#2" to="-373896382#12"/>
    <trip id="bus148" type="bus_bus" depart="495.92" departLane="best" from="171870086#1" to="133755126#14"/>
    <trip id="bus149" type="bus_bus" depart="499.28" departLane="best" from="-800610486" to="171867127#3"/>
    <trip id="bus150" type="bus_bus" depart="502.63" departLane="best" from="-245441027#7" to="236471187#1"/>
    <trip id="bus151" type="bus_bus" depart="505.98" departLane="best" from="-122612356#1" to="800610509#4"/>
    <trip id="bus152" type="bus_bus" depart="509.33" departLane="best" from="158486424#2" to="245441027#4"/>
    <trip id="bus153" type="bus_bus" depart="512.68" departLane="best" from="286437949" to="186254736#5"/>
    <trip id="bus154" type="bus_bus" depart="516.03" departLane="best" from="-800384383" to="-158486424#3"/>
    <trip id="bus155" type="bus_bus" depart="519.38" departLane="best" from="-373896382#12" to="706318010"/>
    <trip id="bus156" type="bus_bus" depart="522.73" departLane="best" from="245441027#4" to="-306475946#0"/>
    <trip id="bus157" type="bus_bus" depart="526.08" departLane="best" from="-306475950" to="-800610511"/>
    <trip id="bus158" type="bus_bus" depart="529.43" departLane="best" from="-800610509#0" to="-306475943#1"/>
    <trip id="bus159" type="bus_bus" depart="532.78" departLane="best" from="800669884" to="186258455#0"/>
    <trip id="bus160" type="bus_bus" depart="536.13" departLane="best" from="800610485#0" to="171902835#3"/>
    <trip id="bus161" type="bus_bus" depart="539.49" departLane="best" from="-306475946#1" to="171865791"/>
    <trip id="bus162" type="bus_bus" depart="542.84" departLane="best" from="-122612356#0" to="-290646814"/>
    <trip id="bus164" type="bus_bus" depart="549.54" departLane="best" from="186250480#5" to="-812556708"/>
    <trip id="bus165" type="bus_bus" depart="552.89" departLane="best" from="-803758026#1" to="-186258456"/>
    <trip id="bus166" type="bus_bus" depart="556.24" departLane="best" from="122612374#3" to="800610482#3"/>
    <trip id="bus167" type="bus_bus" depart="559.59" departLane="best" from="374529115" to="-173655926#3"/>
    <trip id="bus168" type="bus_bus" depart="562.94" departLane="best" from="-171865792#5" to="133755126#3"/>
    <trip id="bus170" type="bus_bus" depart="569.64" departLane="best" from="374532416#1" to="290520225#1"/>
    <trip id="bus171" type="bus_bus" depart="572.99" departLane="best" from="186254736#8" to="-186262687#2"/>
    <trip id="bus172" type="bus_bus" depart="576.34" departLane="best" from="-186254734" to="-133637886"/>
    <trip id="bus173" type="bus_bus" depart="579.70" departLane="best" from="-236471192#0" to="133055393#0"/>
    <trip id="bus175" type="bus_bus" depart="586.40" departLane="best" from="-800669875" to="171904518"/>
    <trip id="bus176" type="bus_bus" depart="589.75" departLane="best" from="-186250797#0" to="186262687#9"/>
    <trip id="bus177" type="bus_bus" depart="593.10" departLane="best" from="133637887#1" to="-236471188#1"/>
    <trip id="bus178" type="bus_bus" depart="596.45" departLane="best" from="186250792#1" to="-122612374#4"/>
    <trip id="bus179" type="bus_bus" depart="599.80" departLane="best" from="290520225#0" to="306475946#0"/>
    <trip id="bus180" type="bus_bus" depart="603.15" departLane="best" from="-171867127#2" to="-803757987"/>
    <trip id="bus181" type="bus_bus" depart="606.50" departLane="best" from="-173655938#0" to="803758018"/>
    <trip id="bus182" type="bus_bus" depart="609.85" departLane="best" from="-245441027#0" to="706318010"/>
    <trip id="bus183" type="bus_bus" depart="613.20" departLane="best" from="-804207578#1" to="374529118#6"/>
    <trip id="bus184" type="bus_bus" depart="616.55" departLane="best" from="171870075#1" to="803757988#2"/>
    <trip id="bus185" type="bus_bus" depart="619.91" departLane="best" from="245441027#4" to="133755118#5"/>
    <trip id="bus186" type="bus_bus" depart="623.26" departLane="best" from="374533524#2" to="171865791"/>
    <trip id="bus187" type="bus_bus" depart="626.61" departLane="best" from="800610480" to="286438371#1"/>
    <trip id="bus188" type="bus_bus" depart="629.96" departLane="best" from="-236471195#0" to="173655926#5"/>
    <trip id="bus189" type="bus_bus" depart="633.31" departLane="best" from="171902843#0" to="-286438372"/>
    <trip id="bus190" type="bus_bus" depart="636.66" departLane="best" from="-171865787" to="-290646813"/>
    <trip id="bus191" type="bus_bus" depart="640.01" departLane="best" from="-286437949" to="-373896382#7"/>
    <trip id="bus192" type="bus_bus" depart="643.36" departLane="best" from="186276679#0" to="-135530186#6"/>
    <trip id="bus193" type="bus_bus" depart="646.71" departLane="best" from="-800610510" to="158486424#7"/>
    <trip id="bus194" type="bus_bus" depart="650.06" departLane="best" from="-800669878" to="-186254736#8"/>
    <trip id="bus195" type="bus_bus" depart="653.41" departLane="best" from="706734275#3" to="306475943#1"/>
    <trip id="bus196" type="bus_bus" depart="656.76" departLane="best" from="-800610482#2" to="-122612374#4"/>
    <trip id="bus197" type="bus_bus" depart="660.12" departLane="best" from="-713329449" to="290520227"/>
    <trip id="bus198" type="bus_bus" depart="663.47" departLane="best" from="706734274#2" to="803758014"/>
    <trip id="bus199" type="bus_bus" depart="666.82" departLane="best" from="-800669884" to="288926324#2"/>
    <trip id="bus200" type="bus_bus" depart="670.17" departLane="best" from="171865787" to="171870085#0"/>
    <trip id="bus201" type="bus_bus" depart="673.52" departLane="best" from="-803758018" to="-133755117#1"/>
    <trip id="bus202" type="bus_bus" depart="676.87" departLane="best" from="-706734274#0" to="186258455#2"/>
    <trip id="bus203" type="bus_bus" depart="680.22" departLane="best" from="-800610509#2" to="-171904519#1"/>
    <trip id="bus204" type="bus_bus" depart="683.57" departLane="best" from="-817230302" to="-171870075#0"/>
    <trip id="bus205" type="bus_bus" depart="686.92" departLane="best" from="171902839#4" to="-133637887#2"/>
    <trip id="bus206" type="bus_bus" depart="690.27" departLane="best" from="-800610495#0" to="171865797#6"/>
    <trip id="bus207" type="bus_bus" depart="693.62" departLane="best" from="-133637887#2" to="173655938#1"/>
    <trip id="bus208" type="bus_bus" depart="696.97" departLane="best" from="-171870084#2" to="-810367889"/>
    <trip id="bus209" type="bus_bus" depart="700.33" departLane="best" from="-133755126#8" to="-800610482#0"/>
    <trip id="bus210" type="bus_bus" depart="703.68" departLane="best" from="-186258455#1" to="-546663980"/>
    <trip id="bus211" type="bus_bus" depart="707.03" departLane="best" from="306475941#2" to="-800610482#1"/>
    <trip id="bus212" type="bus_bus" depart="710.38" departLane="best" from="290520225#2" to="374533524#3"/>
    <trip id="bus213" type="bus_bus" depart="713.73" departLane="best" from="-245441027#4" to="-171865792#11"/>
    <trip id="bus214" type="bus_bus" depart="717.08" departLane="best" from="-133637883#1" to="158486424#3"/>
    <trip id="bus216" type="bus_bus" depart="723.78" departLane="best" from="186250480#0" to="373896382#0"/>
    <trip id="bus217" type="bus_bus" depart="727.13" departLane="best" from="186250480#2" to="290646812#0"/>
    <trip id="bus218" type="bus_bus" depart="730.48" departLane="best" from="-133637883#2" to="-171902837#1"/>
    <trip id="bus219" type="bus_bus" depart="733.83" departLane="best" from="-171867138#0" to="186254736#4"/>
    <trip id="bus220" type="bus_bus" depart="737.18" departLane="best" from="171865797#6" to="-186262687#0"/>
    <trip id="bus221" type="bus_bus" depart="740.54" departLane="best" from="186263426#0" to="306475943#2"/>
    <trip id="bus222" type="bus_bus" depart="743.89" departLane="best" from="-173655926#1" to="171870086#2"/>
    <trip id="bus223" type="bus_bus" depart="747.24" departLane="best" from="374532416#10" to="803758026#1"/>
    <trip id="bus224" type="bus_bus" depart="750.59" departLane="best" from="-171867128" to="-133637887#0"/>
    <trip id="bus225" type="bus_bus" depart="753.94" departLane="best" from="-373896382#1" to="186258455#0"/>
    <trip id="bus226" type="bus_bus" depart="757.29" departLane="best" from="803758019" to="-800610497"/>
    <trip id="bus227" type="bus_bus" depart="760.64" departLane="best" from="236471195#1" to="-171865779"/>
    <trip id="bus228" type="bus_bus" depart="763.99" departLane="best" from="-171867126#5" to="306475946#2"/>
    <trip id="bus230" type="bus_bus" depart="770.69" departLane="best" from="-171867136#1" to="804207591#5"/>
    <trip id="bus231" type="bus_bus" depart="774.04" departLane="best" from="373896382#10" to="-713329444#1"/>
    <trip id="bus232" type="bus_bus" depart="777.40" departLane="best" from="-803757990" to="-800384387#3"/>
    <trip id="bus233" type="bus_bus" depart="780.75" departLane="best" from="133755124" to="-706734275#3"/>
    <trip id="bus235" type="bus_bus" depart="787.45" departLane="best" from="-171867127#1" to="803758022"/>
    <trip id="bus236" type="bus_bus" depart="790.80" departLane="best" from="173655926#3" to="374533523#0"/>
    <trip id="bus237" type="bus_bus" depart="794.15" departLane="best" from="186276679#1" to="-803758018"/>
    <trip id="bus238" type="bus_bus" depart="797.50" departLane="best" from="246989083#2" to="803758027"/>
    <trip id="bus239" type="bus_bus" depart="800.85" departLane="best" from="-246989092#1" to="374529120#3"/>
    <trip id="bus240" type="bus_bus" depart="804.20" departLane="best" from="158486424#2" to="133637487#4"/>
    <trip id="bus241" type="bus_bus" depart="807.55" departLane="best" from="-803758018" to="246982755#1"/>
    <trip id="bus242" type="bus_bus" depart="810.90" departLane="best" from="-246989087#0" to="706734274#0"/>
    <trip id="bus243" type="bus_bus" depart="814.25" departLane="best" from="374533524#2" to="-171865792#8"/>
    <trip id="bus244" type="bus_bus" depart="817.61" departLane="best" from="800384381" to="-236471188#1"/>
    <trip id="bus245" type="bus_bus" depart="820.96" departLane="best" from="-812556707#1" to="171902831#0"/>
    <trip id="bus246" type="bus_bus" depart="824.31" departLane="best" from="-800610482#0" to="-133755117#1"/>
    <trip id="bus248" type="bus_bus" depart="831.01" departLane="best" from="-186258455#1" to="374529118#2"/>
    <trip id="bus249" type="bus_bus" depart="834.36" departLane="best" from="-133637485" to="803757988#0"/>
    <trip id="bus250" type="bus_bus" depart="837.71" departLane="best" from="-171865792#5" to="245441027#5"/>
    <trip id="bus251" type="bus_bus" depart="841.06" departLane="best" from="133637883#2" to="306475940#0"/>
    <trip id="bus252" type="bus_bus" depart="844.41" departLane="best" from="186262687#2" to="173655938#5"/>
    <trip id="bus253" type="bus_bus" depart="847.76" departLane="best" from="133637884" to="374529112#0"/>
    <trip id="bus254" type="bus_bus" depart="851.11" departLane="best" from="-171865797#4" to="-186262687#12"/>
    <trip id="bus255" type="bus_bus" depart="854.46" departLane="best" from="186262687#4" to="-306475947#2"/>
    <trip id="bus256" type="bus_bus" depart="857.82" departLane="best" from="171867130#2" to="122612374#3"/>
    <trip id="bus257" type="bus_bus" depart="861.17" departLane="best" from="135530186#3" to="-803757987"/>
    <trip id="bus258" type="bus_bus" depart="864.52" departLane="best" from="288926324#1" to="-706318004#1"/>
    <trip id="bus259" type="bus_bus" depart="867.87" departLane="best" from="186263433#1" to="-246989098#0"/>
    <trip id="bus260" type="bus_bus" depart="871.22" departLane="best" from="-245441027#2" to="-171867136#1"/>
    <trip id="bus261" type="bus_bus" depart="874.57" departLane="best" from="-186250795" to="-171867136#0"/>
    <trip id="bus262" type="bus_bus" depart="877.92" departLane="best" from="135530186#8" to="306475942#0"/>
    <trip id="bus263" type="bus_bus" depart="881.27" departLane="best" from="-186250480#1" to="-186258462#0"/>
    <trip id="bus264" type="bus_bus" depart="884.62" departLane="best" from="133637487#4" to="245441809#0"/>
    <trip id="bus265" type="bus_bus" depart="887.97" departLane="best" from="804207577" to="133882909#1"/>
    <trip id="bus266" type="bus_bus" depart="891.32" departLane="best" from="-290520227" to="-171867126#2"/>
    <trip id="bus267" type="bus_bus" depart="894.67" departLane="best" from="-186250797#0" to="-186262687#7"/>
    <trip id="bus268" type="bus_bus" depart="898.03" departLane="best" from="804207571" to="171865792#3"/>
    <trip id="bus269" type="bus_bus" depart="901.38" departLane="best" from="186262688#0" to="-171867138#0"/>
    <trip id="bus270" type="bus_bus" depart="904.73" departLane="best" from="714381033" to="133637884"/>
    <trip id="bus271" type="bus_bus" depart="908.08" departLane="best" from="715685826#0" to="171867127#0"/>
    <trip id="bus272" type="bus_bus" depart="911.43" departLane="best" from="122612356#1" to="-803758024"/>
    <trip id="bus273" type="bus_bus" depart="914.78" departLane="best" from="-186250480#0" to="-133755126#9"/>
    <trip id="bus274" type="bus_bus" depart="918.13" departLane="best" from="800669884" to="133637484#2"/>
    <trip id="bus275" type="bus_bus" depart="921.48" departLane="best" from="374532416#2" to="-800610502"/>
    <trip id="bus276" type="bus_bus" depart="924.83" departLane="best" from="-158486424#8" to="171904518"/>
    <trip id="bus277" type="bus_bus" depart="928.18" departLane="best" from="-133755133#2" to="-171902835#3"/>
    <trip id="bus278" type="bus_bus" depart="931.53" departLane="best" from="171865797#4" to="-306475946#4"/>