<?xml version="1.0" encoding="UTF-8"?>

<!-- generated on Thu Dec 24 17:38:33 2020 by Eclipse SUMO duarouter Version 1.7.0
<configuration xmlns:xsi="http://www.w3.org/2001/XMLSchema-instance" xsi:noNamespaceSchemaLocation="http://sumo.dlr.de/xsd/duarouterConfiguration.xsd">

    <input>
        <net-file value="/home/shashwath/Sumo/2020-12-24-17-38-13/osm.net.xml"/>
        <route-files value="/home/shashwath/Sumo/2020-12-24-17-38-13/osm.motorcycle.trips.xml"/>
    </input>

    <output>
        <output-file value="/home/shashwath/Sumo/2020-12-24-17-38-13/osm.motorcycle.trips.xml.tmp"/>
        <write-trips value="true"/>
    </output>

    <time>
        <begin value="0"/>
        <end value="3600"/>
    </time>

    <report>
        <no-warnings value="true"/>
        <ignore-errors value="true"/>
        <no-step-log value="true"/>
    </report>

</configuration>
-->

<routes xmlns:xsi="http://www.w3.org/2001/XMLSchema-instance" xsi:noNamespaceSchemaLocation="http://sumo.dlr.de/xsd/routes_file.xsd">
    <vType id="moto_motorcycle" vClass="motorcycle"/>
    <trip id="moto0" type="moto_motorcycle" depart="0.00" departLane="best" from="173655932#1" to="-133637887#0"/>
    <trip id="moto1" type="moto_motorcycle" depart="3.33" departLane="best" from="-288926324#0" to="-186262687#4"/>
    <trip id="moto2" type="moto_motorcycle" depart="6.67" departLane="best" from="246989087#0" to="186258455#1"/>
    <trip id="moto3" type="moto_motorcycle" depart="10.00" departLane="best" from="800384389" to="-171865797#0"/>
    <trip id="moto4" type="moto_motorcycle" depart="13.34" departLane="best" from="-186262687#14" to="171867136#3"/>
    <trip id="moto5" type="moto_motorcycle" depart="16.67" departLane="best" from="374529120#6" to="-133637484#0"/>
    <trip id="moto6" type="moto_motorcycle" depart="20.01" departLane="best" from="-706734275#1" to="-171902839#4"/>
    <trip id="moto7" type="moto_motorcycle" depart="23.34" departLane="best" from="-171865797#4" to="-171865800"/>
    <trip id="moto8" type="moto_motorcycle" depart="26.68" departLane="best" from="706318005" to="171870085#1"/>
    <trip id="moto9" type="moto_motorcycle" depart="30.01" departLane="best" from="374529120#12" to="246982751"/>
    <trip id="moto10" type="moto_motorcycle" depart="33.35" departLane="best" from="-800610482#0" to="171865792#2"/>
    <trip id="moto11" type="moto_motorcycle" depart="36.68" departLane="best" from="374533524#1" to="171902839#1"/>
    <trip id="moto12" type="moto_motorcycle" depart="40.02" departLane="best" from="713329439" to="171867128"/>
    <trip id="moto13" type="moto_motorcycle" depart="43.35" departLane="best" from="186276679#0" to="-133755126#3"/>
    <trip id="moto14" type="moto_motorcycle" depart="46.69" departLane="best" from="-171865792#10" to="-186263433#0"/>
    <trip id="moto15" type="moto_motorcycle" depart="50.02" departLane="best" from="-171867126#5" to="-288926324#3"/>
    <trip id="moto16" type="moto_motorcycle" depart="53.36" departLane="best" from="-246989083#2" to="800669878"/>
    <trip id="moto17" type="moto_motorcycle" depart="56.69" departLane="best" from="-173655926#6" to="246982749#2"/>
    <trip id="moto18" type="moto_motorcycle" depart="60.03" departLane="best" from="171865797#0" to="186262687#10"/>
    <trip id="moto19" type="moto_motorcycle" depart="63.36" departLane="best" from="578203893" to="306475947#1"/>
    <trip id="moto20" type="moto_motorcycle" depart="66.69" departLane="best" from="-373896382#14" to="-246989083#3"/>
    <trip id="moto21" type="moto_motorcycle" depart="70.03" departLane="best" from="720452476" to="-373896382#13"/>
    <trip id="moto22" type="moto_motorcycle" depart="73.36" departLane="best" from="-246989083#0" to="-236471193#1"/>
    <trip id="moto23" type="moto_motorcycle" depart="76.70" departLane="best" from="171865797#3" to="-246982755#0"/>
    <trip id="moto24" type="moto_motorcycle" depart="80.03" departLane="best" from="171867132" to="800610481"/>
    <trip id="moto25" type="moto_motorcycle" depart="83.37" departLane="best" from="-800610499" to="-186262687#12"/>
    <trip id="moto26" type="moto_motorcycle" depart="86.70" departLane="best" from="817117729#1" to="133755126#11"/>
    <trip id="moto27" type="moto_motorcycle" depart="90.04" departLane="best" from="-171865797#2" to="-133755126#5"/>
    <trip id="moto28" type="moto_motorcycle" depart="93.37" departLane="best" from="-171867130#1" to="171904517"/>
    <trip id="moto29" type="moto_motorcycle" depart="96.71" departLane="best" from="373896382#9" to="-800669888"/>
    <trip id="moto30" type="moto_motorcycle" depart="100.04" departLane="best" from="812556708" to="135530186#10"/>
    <trip id="moto31" type="moto_motorcycle" depart="103.38" departLane="best" from="171902829#1" to="-171902839#1"/>
    <trip id="moto32" type="moto_motorcycle" depart="106.71" departLane="best" from="306475942#0" to="158486424#4"/>
    <trip id="moto33" type="moto_motorcycle" depart="110.05" departLane="best" from="-122612356#0" to="-374530997#0"/>
    <trip id="moto34" type="moto_motorcycle" depart="113.38" departLane="best" from="800384377" to="374533524#3"/>
    <trip id="moto35" type="moto_motorcycle" depart="116.72" departLane="best" from="-158486424#3" to="306475941#1"/>
    <trip id="moto36" type="moto_motorcycle" depart="120.05" departLane="best" from="306475943#1" to="-171870076#0"/>
    <trip id="moto38" type="moto_motorcycle" depart="126.72" departLane="best" from="-800715313" to="-186258456"/>
    <trip id="moto39" type="moto_motorcycle" depart="130.06" departLane="best" from="158486424#3" to="246982751"/>
    <trip id="moto40" type="moto_motorcycle" depart="133.39" departLane="best" from="812556707#1" to="186250480#2"/>
    <trip id="moto41" type="moto_motorcycle" depart="136.72" departLane="best" from="-171867136#2" to="-186262687#6"/>
    <trip id="moto42" type="moto_motorcycle" depart="140.06" departLane="best" from="-706734274#2" to="171867136#2"/>
    <trip id="moto43" type="moto_motorcycle" depart="143.39" departLane="best" from="-186262688#2" to="-186262687#14"/>
    <trip id="moto44" type="moto_motorcycle" depart="146.73" departLane="best" from="-158486424#5" to="171904519#2"/>
    <trip id="moto45" type="moto_motorcycle" depart="150.06" departLane="best" from="706734276#3" to="-158486424#5"/>
    <trip id="moto46" type="moto_motorcycle" depart="153.40" departLane="best" from="-186276679#1" to="186254736#5"/>
    <trip id="moto47" type="moto_motorcycle" depart="156.73" departLane="best" from="-186258462#0" to="-171870082"/>
    <trip id="moto48" type="moto_motorcycle" depart="160.07" departLane="best" from="800669877" to="171867126#5"/>
    <trip id="moto49" type="moto_motorcycle" depart="163.40" departLane="best" from="122612374#2" to="373896382#13"/>
    <trip id="moto50" type="moto_motorcycle" depart="166.74" departLane="best" from="374529120#3" to="-186250795"/>
    <trip id="moto51" type="moto_motorcycle" depart="170.07" departLane="best" from="-800715314" to="-817230302"/>
    <trip id="moto52" type="moto_motorcycle" depart="173.41" departLane="best" from="-186250795" to="-803758035#1"/>
    <trip id="moto53" type="moto_motorcycle" depart="176.74" departLane="best" from="-800669888" to="-288926324#4"/>
    <trip id="moto54" type="moto_motorcycle" depart="180.08" departLane="best" from="-246989083#0" to="373896382#12"/>
    <trip id="moto55" type="moto_motorcycle" depart="183.41" departLane="best" from="803758018" to="812556707#1"/>
    <trip id="moto56" type="moto_motorcycle" depart="186.75" departLane="best" from="158486424#7" to="288926324#2"/>
    <trip id="moto57" type="moto_motorcycle" depart="190.08" departLane="best" from="-133882909#3" to="171867131#2"/>
    <trip id="moto58" type="moto_motorcycle" depart="193.42" departLane="best" from="-171902842#0" to="803758022"/>
    <trip id="moto59" type="moto_motorcycle" depart="196.75" departLane="best" from="171870075#1" to="186258453"/>
    <trip id="moto60" type="moto_motorcycle" depart="200.08" departLane="best" from="-186263438#0" to="-171867136#1"/>
    <trip id="moto61" type="moto_motorcycle" depart="203.42" departLane="best" from="800384387#3" to="-236471193#1"/>
    <trip id="moto62" type="moto_motorcycle" depart="206.75" departLane="best" from="171870075#1" to="171902839#2"/>
    <trip id="moto63" type="moto_motorcycle" depart="210.09" departLane="best" from="-800669885" to="171867131#2"/>
    <trip id="moto64" type="moto_motorcycle" depart="213.42" departLane="best" from="-186276679#1" to="-800610496"/>
    <trip id="moto65" type="moto_motorcycle" depart="216.76" departLane="best" from="186254736#8" to="-306475946#0"/>
    <trip id="moto66" type="moto_motorcycle" depart="220.09" departLane="best" from="-158486424#7" to="-186258459"/>
    <trip id="moto67" type="moto_motorcycle" depart="223.43" departLane="best" from="800384380" to="800384378"/>
    <trip id="moto68" type="moto_motorcycle" depart="226.76" departLane="best" from="-800384387#1" to="-171902842#0"/>
    <trip id="moto69" type="moto_motorcycle" depart="230.10" departLane="best" from="374533524#5" to="186263438#1"/>
    <trip id="moto70" type="moto_motorcycle" depart="233.43" departLane="best" from="186250792#0" to="-133637484#1"/>
    <trip id="moto71" type="moto_motorcycle" depart="236.77" departLane="best" from="374530997#1" to="-306475945"/>
    <trip id="moto72" type="moto_motorcycle" depart="240.10" departLane="best" from="-171867128" to="171865792#3"/>
    <trip id="moto73" type="moto_motorcycle" depart="243.44" departLane="best" from="-286438371#0" to="171870086#1"/>
    <trip id="moto74" type="moto_motorcycle" depart="246.77" departLane="best" from="706318004#0" to="-171865797#4"/>
    <trip id="moto75" type="moto_motorcycle" depart="250.11" departLane="best" from="-800715314" to="-288926324#1"/>
    <trip id="moto76" type="moto_motorcycle" depart="253.44" departLane="best" from="-122612374#2" to="306475946#1"/>
    <trip id="moto77" type="moto_motorcycle" depart="256.78" departLane="best" from="173655926#6" to="-246982751"/>
    <trip id="moto78" type="moto_motorcycle" depart="260.11" departLane="best" from="246989098#1" to="171865792#12"/>
    <trip id="moto79" type="moto_motorcycle" depart="263.45" departLane="best" from="-171865779" to="800384382"/>
    <trip id="moto80" type="moto_motorcycle" depart="266.78" departLane="best" from="800610485#1" to="171865787"/>
    <trip id="moto81" type="moto_motorcycle" depart="270.11" departLane="best" from="-171902835#3" to="-171870075#1"/>
    <trip id="moto82" type="moto_motorcycle" depart="273.45" departLane="best" from="-306475949" to="800610482#0"/>
    <trip id="moto83" type="moto_motorcycle" depart="276.78" departLane="best" from="374529115" to="706734276#4"/>
    <trip id="moto84" type="moto_motorcycle" depart="280.12" departLane="best" from="-800610509#4" to="171902839#3"/>
    <trip id="moto85" type="moto_motorcycle" depart="283.45" departLane="best" from="373896382#3" to="-171867129"/>
    <trip id="moto86" type="moto_motorcycle" depart="286.79" departLane="best" from="-186262687#2" to="374530997#0"/>
    <trip id="moto87" type="moto_motorcycle" depart="290.12" departLane="best" from="374529112#3" to="-186262687#9"/>
    <trip id="moto88" type="moto_motorcycle" depart="293.46" departLane="best" from="-133637885" to="-186250797#1"/>
    <trip id="moto89" type="moto_motorcycle" depart="296.79" departLane="best" from="-646246743" to="713329445#0"/>
    <trip id="moto90" type="moto_motorcycle" depart="300.13" departLane="best" from="800669881" to="-171867132"/>
    <trip id="moto91" type="moto_motorcycle" depart="303.46" departLane="best" from="803758035#0" to="-173655938#4"/>
    <trip id="moto92" type="moto_motorcycle" depart="306.80" departLane="best" from="171870086#2" to="133755126#14"/>
    <trip id="moto93" type="moto_motorcycle" depart="310.13" departLane="best" from="-800610486" to="171867128"/>
    <trip id="moto94" type="moto_motorcycle" depart="313.47" departLane="best" from="-122612356#1" to="800610509#4"/>
    <trip id="moto95" type="moto_motorcycle" depart="316.80" departLane="best" from="186254734" to="-706318004#0"/>
    <trip id="moto96" type="moto_motorcycle" depart="320.14" departLane="best" from="-373896382#13" to="706318010"/>
    <trip id="moto97" type="moto_motorcycle" depart="323.47" departLane="best" from="-800610509#0" to="-306475943#1"/>
    <trip id="moto98" type="moto_motorcycle" depart="326.81" departLane="best" from="-306475946#1" to="171865791"/>
    <trip id="moto99" type="moto_motorcycle" depart="330.14" departLane="best" from="-122612356#0" to="-290646814"/>
    <trip id="moto100" type="moto_motorcycle" depart="333.47" departLane="best" from="186250792#1" to="-812556707#1"/>
    <trip id="moto101" type="moto_motorcycle" depart="336.81" departLane="best" from="374529115" to="-173655926#4"/>
    <trip id="moto103" type="moto_motorcycle" depart="343.48" departLane="best" from="-800669875" to="171904519#1"/>
    <trip id="moto104" type="moto_motorcycle" depart="346.81" departLane="best" from="-173655938#1" to="803758019"/>
    <trip id="moto105" type="moto_motorcycle" depart="350.15" departLane="best" from="133755126#6" to="-133755126#8"/>
    <trip id="moto106" type="moto_motorcycle" depart="353.48" departLane="best" from="-804207581" to="374529118#6"/>
    <trip id="moto107" type="moto_motorcycle" depart="356.82" departLane="best" from="186254736#4" to="804217356#8"/>
    <trip id="moto108" type="moto_motorcycle" depart="360.15" departLane="best" from="800384388" to="171902835#1"/>
    <trip id="moto109" type="moto_motorcycle" depart="363.49" departLane="best" from="245441027#2" to="133755118#5"/>
    <trip id="moto110" type="moto_motorcycle" depart="366.82" departLane="best" from="122612374#4" to="-246982749#0"/>
    <trip id="moto111" type="moto_motorcycle" depart="370.16" departLane="best" from="306475943#1" to="133755133#0"/>
    <trip id="moto112" type="moto_motorcycle" depart="373.49" departLane="best" from="-171865789" to="-290646813"/>
    <trip id="moto113" type="moto_motorcycle" depart="376.83" departLane="best" from="158486424#4" to="-171870086#0"/>
    <trip id="moto114" type="moto_motorcycle" depart="380.16" departLane="best" from="-186263426#0" to="186262687#8"/>
    <trip id="moto115" type="moto_motorcycle" depart="383.50" departLane="best" from="-800610510" to="158486424#7"/>
    <trip id="moto116" type="moto_motorcycle" depart="386.83" departLane="best" from="171867131#2" to="186262688#0"/>
    <trip id="moto117" type="moto_motorcycle" depart="390.17" departLane="best" from="706734275#2" to="306475943#0"/>
    <trip id="moto118" type="moto_motorcycle" depart="393.50" departLane="best" from="-186262687#14" to="-186262687#12"/>
    <trip id="moto119" type="moto_motorcycle" depart="396.83" departLane="best" from="-817230302" to="-171870075#1"/>
    <trip id="moto120" type="moto_motorcycle" depart="400.17" departLane="best" from="-800610495#0" to="171865797#7"/>
    <trip id="moto121" type="moto_motorcycle" depart="403.50" departLane="best" from="-133637887#2" to="173655938#2"/>
    <trip id="moto122" type="moto_motorcycle" depart="406.84" departLane="best" from="-171870084#3" to="-810367889"/>
    <trip id="moto123" type="moto_motorcycle" depart="410.17" departLane="best" from="803757990" to="-186254736#1"/>
    <trip id="moto124" type="moto_motorcycle" depart="413.51" departLane="best" from="-171867138#1" to="186254736#6"/>
    <trip id="moto125" type="moto_motorcycle" depart="416.84" departLane="best" from="171865797#6" to="-186262687#10"/>
    <trip id="moto126" type="moto_motorcycle" depart="420.18" departLane="best" from="186263433#0" to="306475943#2"/>
    <trip id="moto127" type="moto_motorcycle" depart="423.51" departLane="best" from="-173655926#2" to="171870088"/>
    <trip id="moto128" type="moto_motorcycle" depart="426.85" departLane="best" from="288926324#2" to="-171867131#2"/>
    <trip id="moto129" type="moto_motorcycle" depart="430.18" departLane="best" from="374532416#10" to="803758027"/>
    <trip id="moto130" type="moto_motorcycle" depart="433.52" departLane="best" from="236471195#0" to="-171865779"/>
    <trip id="moto131" type="moto_motorcycle" depart="436.85" departLane="best" from="186262687#5" to="171904517"/>
    <trip id="moto133" type="moto_motorcycle" depart="443.52" departLane="best" from="-171867136#2" to="804217356#1"/>
    <trip id="moto134" type="moto_motorcycle" depart="446.86" departLane="best" from="373896382#10" to="-713329444#0"/>
    <trip id="moto135" type="moto_motorcycle" depart="450.19" departLane="best" from="133755124" to="-706734275#2"/>
    <trip id="moto136" type="moto_motorcycle" depart="453.53" departLane="best" from="706318011" to="374532416#3"/>
    <trip id="moto137" type="moto_motorcycle" depart="456.86" departLane="best" from="-803758018" to="246982755#0"/>
    <trip id="moto138" type="moto_motorcycle" depart="460.20" departLane="best" from="-246989087#0" to="706734274#0"/>
    <trip id="moto139" type="moto_motorcycle" depart="463.53" departLane="best" from="374533524#2" to="-171865797#0"/>
    <trip id="moto140" type="moto_motorcycle" depart="466.86" departLane="best" from="-186258456" to="374529118#2"/>
    <trip id="moto141" type="moto_motorcycle" depart="470.20" departLane="best" from="-706734275#1" to="800384379"/>
    <trip id="moto142" type="moto_motorcycle" depart="473.53" departLane="best" from="186263433#2" to="-288926324#1"/>
    <trip id="moto143" type="moto_motorcycle" depart="476.87" departLane="best" from="133637883#2" to="306475940#0"/>
    <trip id="moto144" type="moto_motorcycle" depart="480.20" departLane="best" from="-171865797#5" to="-186262687#15"/>
    <trip id="moto145" type="moto_motorcycle" depart="483.54" departLane="best" from="171867130#3" to="122612374#3"/>
    <trip id="moto146" type="moto_motorcycle" depart="486.87" departLane="best" from="186263438#0" to="-246989098#0"/>
    <trip id="moto147" type="moto_motorcycle" depart="490.21" departLane="best" from="-290520227" to="-171867126#4"/>
    <trip id="moto148" type="moto_motorcycle" depart="493.54" departLane="best" from="-173655938#5" to="-133637487#4"/>
    <trip id="moto149" type="moto_motorcycle" depart="496.88" departLane="best" from="135530186#7" to="-286438372"/>
    <trip id="moto150" type="moto_motorcycle" depart="500.21" departLane="best" from="186262688#2" to="-171867138#1"/>
    <trip id="moto151" type="moto_motorcycle" depart="503.55" departLane="best" from="715685826#0" to="171867127#1"/>
    <trip id="moto152" type="moto_motorcycle" depart="506.88" departLane="best" from="-158486424#8" to="171904519#0"/>
    <trip id="moto153" type="moto_motorcycle" depart="510.22" departLane="best" from="171865797#5" to="-306475946#4"/>
    <trip id="moto154" type="moto_motorcycle" depart="513.55" departLane="best" from="306475942#2" to="171870086#2"/>
    <trip id="moto155" type="moto_motorcycle" depart="516.89" departLane="best" from="373896382#8" to="-186262687#7"/>
    <trip id="moto156" type="moto_motorcycle" depart="520.22" departLane="best" from="171902839#4" to="171902831#0"/>
    <trip id="moto157" type="moto_motorcycle" depart="523.56" departLane="best" from="-186258453" to="-186258455#2"/>
    <trip id="moto158" type="moto_motorcycle" depart="526.89" departLane="best" from="171870075#0" to="-306475941#2"/>
    <trip id="moto159" type="moto_motorcycle" depart="530.22" departLane="best" from="-186263426#0" to="236471187#1"/>
    <trip id="moto160" type="moto_motorcycle" depart="533.56" departLane="best" from="186262687#14" to="800610509#2"/>
    <trip id="moto161" type="moto_motorcycle" depart="536.89" departLane="best" from="288926324#4" to="171867126#2"/>
    <trip id="moto162" type="moto_motorcycle" depart="540.23" departLane="best" from="186262687#15" to="186263433#0"/>
    <trip id="moto163" type="moto_motorcycle" depart="543.56" departLane="best" from="-374529123#0" to="-245441027#1"/>
    <trip id="moto164" type="moto_motorcycle" depart="546.90" departLane="best" from="186254736#9" to="-246989092#0"/>
    <trip id="moto165" type="moto_motorcycle" depart="550.23" departLane="best" from="-713329444#1" to="-706318010"/>
    <trip id="moto166" type="moto_motorcycle" depart="553.57" departLane="best" from="-306475940#0" to="800715314"/>
    <trip id="moto167" type="moto_motorcycle" depart="556.90" departLane="best" from="-800610509#2" to="133755126#3"/>
    <trip id="moto168" type="moto_motorcycle" depart="560.24" departLane="best" from="158486424#7" to="-800669863"/>
    <trip id="moto169" type="moto_motorcycle" depart="563.57" departLane="best" from="290646813" to="171902843#0"/>
    <trip id="moto170" type="moto_motorcycle" depart="566.91" departLane="best" from="306475941#0" to="-186254736#7"/>
    <trip id="moto171" type="moto_motorcycle" depart="570.24" departLane="best" from="171865792#10" to="800610512"/>
    <trip id="moto172" type="moto_motorcycle" depart="573.58" departLane="best" from="171902829#1" to="-236471187#0"/>
    <trip id="moto173" type="moto_motorcycle" depart="576.91" departLane="best" from="-171902842#1" to="171865792#11"/>
    <trip id="moto174" type="moto_motorcycle" depart="580.25" departLane="best" from="171865792#2" to="-171865797#5"/>
    <trip id="moto175" type="moto_motorcycle" depart="583.58" departLane="best" from="374533524#4" to="133755117#2"/>
    <trip id="moto176" type="moto_motorcycle" depart="586.92" departLane="best" from="-286438371#1" to="374533525#0"/>
    <trip id="moto177" type="moto_motorcycle" depart="590.25" departLane="best" from="171865792#12" to="-800610485#0"/>
    <trip id="moto178" type="moto_motorcycle" depart="593.59" departLane="best" from="800610509#0" to="133755126#1"/>
    <trip id="moto179" type="moto_motorcycle" depart="596.92" departLane="best" from="800384378" to="713329445#0"/>
    <trip id="moto180" type="moto_motorcycle" depart="600.25" departLane="best" from="-288926324#1" to="373896382#7"/>
    <trip id="moto181" type="moto_motorcycle" depart="603.59" departLane="best" from="171867136#0" to="817230302"/>
    <trip id="moto182" type="moto_motorcycle" depart="606.92" departLane="best" from="158486424#3" to="-706734276#3"/>
    <trip id="moto183" type="moto_motorcycle" depart="610.26" departLane="best" from="171867126#6" to="-186263433#1"/>
    <trip id="moto184" type="moto_motorcycle" depart="613.59" departLane="best" from="306475947#1" to="-133755126#16"/>
    <trip id="moto185" type="moto_motorcycle" depart="616.93" departLane="best" from="-133755124" to="133755118#3"/>
    <trip id="moto186" type="moto_motorcycle" depart="620.26" departLane="best" from="171867136#4" to="714381034"/>
    <trip id="moto187" type="moto_motorcycle" depart="623.60" departLane="best" from="-706734274#2" to="186262687#7"/>
    <trip id="moto188" type="moto_motorcycle" depart="626.93" departLane="best" from="706734274#0" to="706734276#2"/>
    <trip id="moto189" type="moto_motorcycle" depart="630.27" departLane="best" from="-800610482#1" to="-373896382#3"/>
    <trip id="moto190" type="moto_motorcycle" depart="633.60" departLane="best" from="245441027#1" to="306475940#1"/>
    <trip id="moto191" type="moto_motorcycle" depart="636.94" departLane="best" from="-158486424#2" to="171904519#2"/>
    <trip id="moto192" type="moto_motorcycle" depart="640.27" departLane="best" from="-133755126#4" to="374529115"/>
    <trip id="moto193" type="moto_motorcycle" depart="643.61" departLane="best" from="171865800" to="374529112#0"/>
    <trip id="moto194" type="moto_motorcycle" depart="646.94" departLane="best" from="-236471188#0" to="800610494"/>
    <trip id="moto195" type="moto_motorcycle" depart="650.28" departLane="best" from="-245441027#6" to="-245441027#7"/>
    <trip id="moto196" type="moto_motorcycle" depart="653.61" departLane="best" from="-133637484#3" to="374529120#10"/>
    <trip id="moto197" type="moto_motorcycle" depart="656.95" departLane="best" from="-706734276#3" to="171867136#1"/>
    <trip id="moto198" type="moto_motorcycle" depart="660.28" departLane="best" from="171867126#6" to="171867127#2"/>
    <trip id="moto199" type="moto_motorcycle" depart="663.61" departLane="best" from="810367888" to="-306475943#0"/>
    <trip id="moto200" type="moto_motorcycle" depart="666.95" departLane="best" from="804207581" to="186250796"/>
    <trip id="moto201" type="moto_motorcycle" depart="670.28" departLane="best" from="186250797#0" to="374533525#4"/>
    <trip id="moto202" type="moto_motorcycle" depart="673.62" departLane="best" from="-803758026#0" to="171867130#1"/>
    <trip id="moto203" type="moto_motorcycle" depart="676.95" departLane="best" from="246989083#0" to="-171865797#11"/>
    <trip id="moto204" type="moto_motorcycle" depart="680.29" departLane="best" from="135530186#3" to="800610495#0"/>
    <trip id="moto205" type="moto_motorcycle" depart="683.62" departLane="best" from="374533524#2" to="-245441030"/>
    <trip id="moto206" type="moto_motorcycle" depart="686.96" departLane="best" from="374532416#5" to="133637487#1"/>
    <trip id="moto207" type="moto_motorcycle" depart="690.29" departLane="best" from="-706734275#0" to="-171867132"/>
    <trip id="moto208" type="moto_motorcycle" depart="693.63" departLane="best" from="803758026#0" to="-171870088"/>
    <trip id="moto209" type="moto_motorcycle" depart="696.96" departLane="best" from="245441030" to="804207589#1"/>
    <trip id="moto210" type="moto_motorcycle" depart="700.30" departLane="best" from="803758029#0" to="374529120#1"/>
    <trip id="moto211" type="moto_motorcycle" depart="703.63" departLane="best" from="-800384384" to="373896382#8"/>
    <trip id="moto212" type="moto_motorcycle" depart="706.97" departLane="best" from="-171867129" to="-186263433#1"/>
    <trip id="moto213" type="moto_motorcycle" depart="710.30" departLane="best" from="171865797#3" to="800610496"/>
    <trip id="moto214" type="moto_motorcycle" depart="713.64" departLane="best" from="-306475946#2" to="-800610511"/>
    <trip id="moto215" type="moto_motorcycle" depart="716.97" departLane="best" from="-171865800" to="800384387#0"/>
    <trip id="moto216" type="moto_motorcycle" depart="720.31" departLane="best" from="-800669877" to="-171867126#1"/>
    <trip id="moto217" type="moto_motorcycle" depart="723.64" departLane="best" from="-171867126#2" to="186262687#11"/>
    <trip id="moto218" type="moto_motorcycle" depart="726.97" departLane="best" from="-720452476" to="-800610498#1"/>
    <trip id="moto219" type="moto_motorcycle" depart="730.31" departLane="best" from="171870081#0" to="-133637883#5"/>
    <trip id="moto220" type="moto_motorcycle" depart="733.64" departLane="best" from="-171867138#1" to="171865797#7"/>
    <trip id="moto221" type="moto_motorcycle" depart="736.98" departLane="best" from="714381034" to="-646246743"/>
    <trip id="moto222" type="moto_motorcycle" depart="740.31" departLane="best" from="-122612374#1" to="706734276#1"/>
    <trip id="moto223" type="moto_motorcycle" depart="743.65" departLane="best" from="-171902831#2" to="-171870081#0"/>
    <trip id="moto224" type="moto_motorcycle" depart="746.98" departLane="best" from="-245441027#1" to="-173655938#0"/>
    <trip id="moto225" type="moto_motorcycle" depart="750.32" departLane="best" from="186250798" to="-133637887#1"/>
    <trip id="moto226" type="moto_motorcycle" depart="753.65" departLane="best" from="-186276679#1" to="-374530997#0"/>
    <trip id="moto227" type="moto_motorcycle" depart="756.99" departLane="best" from="246989098#1" to="133882909#3"/>
    <trip id="moto228" type="moto_motorcycle" depart="760.32" departLane="best" from="306475948" to="133755126#16"/>
    <trip id="moto229" type="moto_motorcycle" depart="763.66" departLane="best" from="-171867130#0" to="133755118#4"/>
    <trip id="moto230" type="moto_motorcycle" depart="766.99" departLane="best" from="800715314" to="-133755126#16"/>
    <trip id="moto231" type="moto_motorcycle" depart="770.33" departLane="best" from="373896382#10" to="713329446"/>
    <trip id="moto232" type="moto_motorcycle" depart="773.66" departLane="best" from="803758026#1" to="-135530186#2"/>
    <trip id="moto233" type="moto_motorcycle" depart="777.00" departLane="best" from="-171865792#11" to="171902829#0"/>
    <trip id="moto234" type="moto_motorcycle" depart="780.33" departLane="best" from="171870086#1" to="-171867126#2"/>
    <trip id="moto235" type="moto_motorcycle" depart="783.67" departLane="best" from="186263433#2" to="706734274#1"/>
    <trip id="moto236" type="moto_motorcycle" depart="787.00" departLane="best" from="-800669878" to="-171865797#7"/>
    <trip id="moto237" type="moto_motorcycle" depart="790.34" departLane="best" from="-803757988#1" to="186254736#0"/>
    <trip id="moto238" type="moto_motorcycle" depart="793.67" departLane="best" from="374533524#3" to="-171865797#5"/>
    <trip id="moto239" type="moto_motorcycle" depart="797.00" departLane="best" from="-171865800" to="246989092#0"/>
    <trip id="moto240" type="moto_motorcycle" depart="800.34" departLane="best" from="171867136#0" to="171865797#4"/>
    <trip id="moto241" type="moto_motorcycle" depart="803.67" departLane="best" from="-706110059" to="-171867136#4"/>
    <trip id="moto242" type="moto_motorcycle" depart="807.01" departLane="best" from="-714381033" to="186254736#0"/>
    <trip id="moto244" type="moto_motorcycle" depart="813.68" departLane="best" from="245441027#5" to="803758030"/>
    <trip id="moto245" type="moto_motorcycle" depart="817.01" departLane="best" from="171867129" to="-186258457"/>
    <trip id="moto246" type="moto_motorcycle" depart="820.35" departLane="best" from="-171867129" to="706318004#0"/>
    <trip id="moto247" type="moto_motorcycle" depart="823.68" departLane="best" from="173655938#2" to="-133637887#1"/>
    <trip id="moto249" type="moto_motorcycle" depart="830.35" departLane="best" from="186263438#0" to="-306475950"/>
    <trip id="moto250" type="moto_motorcycle" depart="833.69" departLane="best" from="-706734275#1" to="-122612374#4"/>