<?xml version="1.0" encoding="UTF-8"?>

<!-- generated on Thu Dec 24 17:38:19 2020 by Eclipse SUMO netconvert Version 1.7.0
<configuration xmlns:xsi="http://www.w3.org/2001/XMLSchema-instance" xsi:noNamespaceSchemaLocation="http://sumo.dlr.de/xsd/netconvertConfiguration.xsd">

    <input>
        <type-files value="/opt/sumo-1.7.0/data/typemap/osmNetconvert.typ.xml,/opt/sumo-1.7.0/data/typemap/osmNetconvertUrbanDe.typ.xml,/opt/sumo-1.7.0/data/typemap/osmNetconvertPedestrians.typ.xml,/opt/sumo-1.7.0/data/typemap/osmNetconvertBicycle.typ.xml"/>
        <osm-files value="osm_bbox.osm.xml"/>
    </input>

    <output>
        <output-file value="osm.net.xml"/>
        <output.street-names value="true"/>
        <output.original-names value="true"/>
        <ptstop-output value="osm_stops.add.xml"/>
        <ptline-output value="osm_ptlines.xml"/>
    </output>

    <projection>
        <proj.utm value="true"/>
    </projection>

    <processing>
        <geometry.remove value="true"/>
        <roundabouts.guess value="true"/>
        <lefthand value="true"/>
    </processing>

    <tls_building>
        <tls.discard-simple value="true"/>
        <tls.join value="true"/>
        <tls.guess-signals value="true"/>
        <tls.default-type value="actuated"/>
    </tls_building>

    <ramp_guessing>
        <ramps.guess value="true"/>
    </ramp_guessing>

    <junctions>
        <junctions.join value="true"/>
        <junctions.corner-detail value="5"/>
    </junctions>

    <pedestrian>
        <crossings.guess value="true"/>
    </pedestrian>

    <railway>
        <railway.topology.repair value="true"/>
        <railway.topology.repair.stop-turn value="true"/>
    </railway>

    <report>
        <verbose value="true"/>
        <aggregate-warnings value="5"/>
    </report>

</configuration>
-->

<additional xmlns:xsi="http://www.w3.org/2001/XMLSchema-instance" xsi:noNamespaceSchemaLocation="http://sumo.dlr.de/xsd/additional_file.xsd">
    <busStop id="3779281661" name="Laxmindra Nagara" lane="374532416#5_0" startPos="7.80" endPos="32.80" friendlyPos="true">
        <access lane="-186250799#0_0" pos="0.00" length="36.96" friendlyPos="1"/>
        <access lane="133637887#1_0" pos="96.79" length="103.16" friendlyPos="1"/>
        <access lane="133637887#2_0" pos="57.00" length="103.73" friendlyPos="1"/>
        <access lane="186250797#1_0" pos="131.12" length="98.89" friendlyPos="1"/>
        <access lane="186250799#0_0" pos="123.10" length="45.99" friendlyPos="1"/>
    </busStop>
    <busStop id="3779293984" name="Laxmindra Nagar Bus Stop" lane="374529120#8_0" startPos="9.43" endPos="34.43" friendlyPos="true">
        <access lane="-133637887#2_0" pos="0.00" length="58.18" friendlyPos="1"/>
        <access lane="-186250796_0" pos="0.00" length="66.56" friendlyPos="1"/>
        <access lane="-186250799#0_0" pos="0.00" length="39.70" friendlyPos="1"/>
        <access lane="133637887#2_0" pos="57.00" length="47.79" friendlyPos="1"/>
        <access lane="186250799#0_0" pos="123.10" length="27.36" friendlyPos="1"/>
    </busStop>
</additional>
