<?xml version="1.0" encoding="UTF-8"?>

<!-- generated on Wed Nov 25 19:52:12 2020 by Eclipse SUMO duarouter Version 1.7.0
<configuration xmlns:xsi="http://www.w3.org/2001/XMLSchema-instance" xsi:noNamespaceSchemaLocation="http://sumo.dlr.de/xsd/duarouterConfiguration.xsd">

    <input>
        <net-file value="/home/shashwath/Sumo/2020-11-25-19-52-06/osm.net.xml"/>
        <route-files value="/home/shashwath/Sumo/2020-11-25-19-52-06/osm.pedestrian.trips.xml"/>
    </input>

    <output>
        <output-file value="/home/shashwath/Sumo/2020-11-25-19-52-06/osm.pedestrian.rou.xml"/>
        <alternatives-output value="/home/shashwath/Sumo/2020-11-25-19-52-06/osm.pedestrian.rou.alt.xml"/>
    </output>

    <time>
        <begin value="0"/>
        <end value="3600"/>
    </time>

    <report>
        <no-warnings value="true"/>
        <ignore-errors value="true"/>
        <no-step-log value="true"/>
    </report>

</configuration>
-->

<routes xmlns:xsi="http://www.w3.org/2001/XMLSchema-instance" xsi:noNamespaceSchemaLocation="http://sumo.dlr.de/xsd/routes_file.xsd">
    <vType id="ped_pedestrian" vClass="pedestrian"/>
    <person id="ped5" type="ped_pedestrian" depart="21.91">
        <walk edges="-186258453 -133755126#4 -133755126#3 186254733#0 706318011 133755118#1 133755118#2 133755118#3"/>
    </person>
    <person id="ped12" type="ped_pedestrian" depart="52.59">
        <walk edges="800669882 -171867130#1 800610495#1 800610495#0 171867136#3 -171902831#0 -306475950"/>
    </person>
    <person id="ped13" type="ped_pedestrian" depart="56.98">
        <walk edges="-171865792#2 171865800 171865797#1 -171865797#0"/>
    </person>
    <person id="ped14" type="ped_pedestrian" depart="61.36">
        <walk edges="609872584 122612374#2 -186263433#0 -364433566 186263438#1 290625965 -186263433#2 706734275#1 706734275#0 706734276#4 706734276#3 171867126"/>
    </person>
    <person id="ped16" type="ped_pedestrian" depart="70.13">
        <walk edges="133755126#9 -133755126#8 -133755126#7 -133755126#5 -133755126#4 -133755126#3 186254733#0 706318011 133755118#1 -133755118#2 -588939865 -374530997#1 804207591#0"/>
    </person>
    <person id="ped25" type="ped_pedestrian" depart="109.57">
        <walk edges="-706318012 543879349#1 -133755127#1 133755127#0 133755118#2 133755118#1 706318011 -186254733#0"/>
    </person>
    <person id="ped26" type="ped_pedestrian" depart="113.95">
        <walk edges="-288926324#1 -288926324#2 -288926324#3 -288926324#4 -288926324#5 -706734276#2 -706734276#3 171867136#0 171867136#1 171867136#2 171867136#3 800610495#0 800610496"/>
    </person>
    <person id="ped28" type="ped_pedestrian" depart="122.72">
        <walk edges="-171867136#2 -171867136#1 171867136#0 706734276#3 706734276#2 288926324#5 288926324#4 -236471193#0 236471193#1"/>
    </person>
    <person id="ped33" type="ped_pedestrian" depart="144.64">
        <walk edges="-186258773#1 -133755126#8 -133755126#7 -133755126#5 -133755126#4 -133755126#3 186254733#0 706318011 133755118#1 -133755118#2"/>
    </person>
    <person id="ped39" type="ped_pedestrian" depart="170.93">
        <walk edges="-288926324#0 -288926324#1 -288926324#2 -288926324#3 -288926324#4 -288926324#5 706734276#1 -706734275#0 -706734275#1 186263433#2 290625965 -186263438#1 -186263438#0"/>
    </person>
    <person id="ped40" type="ped_pedestrian" depart="175.32">
        <walk edges="171865792#0 246989090 -246989090"/>
    </person>
    <person id="ped45" type="ped_pedestrian" depart="197.23">
        <walk edges="-171865797#3 171865797#4 171865797#5 171867131"/>
    </person>
    <person id="ped49" type="ped_pedestrian" depart="214.76">
        <walk edges="804207591#0 -374530997#1 -588939865 -133755118#2 706734268 706173404#2"/>
    </person>
    <person id="ped50" type="ped_pedestrian" depart="219.14">
        <walk edges="-122612374#1 -186263433#0 -364433566 186263438#1 290625965 186263433#2 -706734275#1 -706734275#0 706734276#1 -288926324#5 236471190"/>
    </person>
    <person id="ped51" type="ped_pedestrian" depart="223.53">
        <walk edges="186254733#1 706318011 133755118#1 133755118#2 133755127#0"/>
    </person>
    <person id="ped52" type="ped_pedestrian" depart="227.91">
        <walk edges="-288926324#1 -288926324#2 -288926324#3 -288926324#4 -288926324#5 -706734276#2 -706734276#3 171867136#0 171867136#1 171867136#2"/>
    </person>
    <person id="ped53" type="ped_pedestrian" depart="232.29">
        <walk edges="-171865797#4 -171865797#5 -171865797#6 -171865797#7 -800610497 -800610498#0"/>
    </person>
    <person id="ped54" type="ped_pedestrian" depart="236.68">
        <walk edges="-800669882 -171867130#1 800610495#1 800610495#0 171867136#3 171867136#2 171867136#1 171867136#0 706734276#3 706734276#2 288926324#5 288926324#4 236471193#0 800669878"/>
    </person>
    <person id="ped63" type="ped_pedestrian" depart="276.12">
        <walk edges="-122612374#3 -122612374#2 186263433#0 186263433#1 186263433#2 -706734275#1 706734275#0 706734276#4 -171867136#0 -171867136#1 -171867136#2 171867136#3 800610495#0"/>
    </person>
    <person id="ped64" type="ped_pedestrian" depart="280.50">
        <walk edges="706734269 -186258773#0 374531000"/>
    </person>
    <person id="ped70" type="ped_pedestrian" depart="306.80">
        <walk edges="122612356#1 -171867136#1 -171867136#2 171867136#3 800610495#0 800610495#1 -171867130#1 -171867130#0 -158486424#1 158486424#0"/>
    </person>
    <person id="ped79" type="ped_pedestrian" depart="346.25">
        <walk edges="-186259469 -133755118#2 -133755118#1 -706318011 186254733#1 133755126#2 133755126#3 133755126#4 133755126#5 133755126#7 186258462 -186258462"/>
    </person>
    <person id="ped82" type="ped_pedestrian" depart="359.40">
        <walk edges="706173404#1 706734268 133755118#2 133755127#0 -133755127#1 -133755127#2"/>
    </person>
    <person id="ped83" type="ped_pedestrian" depart="363.78">
        <walk edges="-186263433#1 -186263433#2 706734275#1 706734275#0 706734276#4 -171867136#0 -171867136#1 -171867136#2 171867136#3 800610495#0 800610495#1 -171867130#1 -171867130#0 -158486424#1 -171870085 171870086#1"/>
    </person>
    <person id="ped88" type="ped_pedestrian" depart="385.69">
        <walk edges="-171865797#0 -171865797#1 -171865797#2 -171865797#3 -171865797#4 -171865797#5 -171865797#6 -171865797#7 -800610497"/>
    </person>
    <person id="ped89" type="ped_pedestrian" depart="390.08">
        <walk edges="-800610495#1 -800610495#0 -171867136#3 -171867136#2 -171867136#1 -171867136#0 706734276#4 -706734275#0 -817230302"/>
    </person>
    <person id="ped90" type="ped_pedestrian" depart="394.46">
        <walk edges="236471193#1 -236471193#0 288926324#4 288926324#5 706734276#2 706734276#3 171867136#0 171867136#1 171867136#2 171902831#0 171902831#1"/>
    </person>
    <person id="ped92" type="ped_pedestrian" depart="403.22">
        <walk edges="-706734276#2 -706734276#3 -706734276#0 -706734275#0 -706734275#1 186263433#2 290625965 186263438#1 -364433566"/>
    </person>
    <person id="ped94" type="ped_pedestrian" depart="411.99">
        <walk edges="-171870085 -158486424#1 -171867130#0 -171867130#1 800610495#1 800610495#0 171867136#3 171867136#2 171867136#1 171867136#0 -706734276#3 -706734276#2 -288926324#5 -288926324#4 -288926324#3 -288926324#2 -800669876"/>
    </person>
    <person id="ped95" type="ped_pedestrian" depart="416.37">
        <walk edges="-800610495#0 -171867136#3 -171867136#2 -171867136#1 -171867136#0 -706734276#3 -706734276#2 -288926324#5 -288926324#4"/>
    </person>
    <person id="ped101" type="ped_pedestrian" depart="442.67">
        <walk edges="609872584 122612374#2 -186263433#0 -364433566 186263438#1 290625965 -186263433#2 706734275#1 706734275#0 706734276#4 -171867136#0"/>
    </person>
    <person id="ped106" type="ped_pedestrian" depart="464.59">
        <walk edges="-800669882 -171867130#1 800610495#1 -800610495#0"/>
    </person>
    <person id="ped108" type="ped_pedestrian" depart="473.35">
        <walk edges="158486424#2 -171867130#0 -171867130#1 800610495#1 800610495#0 171867136#3 -171867136#2 -171867136#1 -171867136#0 706734276#4 706734275#0 706734275#1 -186263433#2 290625965 186263438#1"/>
    </person>
    <person id="ped118" type="ped_pedestrian" depart="517.18">
        <walk edges="706734275#1 -186263433#2 290625965 -186263438#1 -186263438#0"/>
    </person>
    <person id="ped120" type="ped_pedestrian" depart="525.95">
        <walk edges="-800384380 -800384378 -171865797#3 171865797#4"/>
    </person>
    <person id="ped122" type="ped_pedestrian" depart="534.71">
        <walk edges="-171902831#1 -171902831#0 -171867136#2 -171867136#1 -171867136#0 706734276#4 706734275#0 706734275#1 -186263433#2 290625965 186263438#1 186263438#0"/>
    </person>
    <person id="ped123" type="ped_pedestrian" depart="539.09">
        <walk edges="-186263433#1 186263433#2 -706734275#1 -706734275#0 -706734276#0"/>
    </person>
    <person id="ped128" type="ped_pedestrian" depart="561.01">
        <walk edges="-133755127#2 -133755127#1 133755127#0 133755118#2 133755118#1 706318011 -186254733#1"/>
    </person>
    <person id="ped129" type="ped_pedestrian" depart="565.39">
        <walk edges="-288926324#0 288926324#1 288926324#2 288926324#3 288926324#4 288926324#5 706734276#2 706734276#3 171867136#0 171867136#1 171867136#2 171867136#3 800610495#0 800610495#1"/>
    </person>
    <person id="ped130" type="ped_pedestrian" depart="569.77">
        <walk edges="706734271 706734269"/>
    </person>
    <person id="ped135" type="ped_pedestrian" depart="591.69">
        <walk edges="374529115 804217356#1 -306475941#0"/>
    </person>
    <person id="ped137" type="ped_pedestrian" depart="600.45">
        <walk edges="-171867128 171865797#3 -171865797#4 -171865797#5"/>
    </person>
    <person id="ped139" type="ped_pedestrian" depart="609.22">
        <walk edges="-288926324#2 -288926324#3 288926324#4 288926324#5 706734276#2 -171867126 171867126"/>
    </person>
    <person id="ped140" type="ped_pedestrian" depart="613.60">
        <walk edges="186263438#1 290625965 -186263433#2 706734275#1 706734275#0 706734276#4 -171867136#0 -171867136#1 -171867136#2 -171902831#0 -171902831#1"/>
    </person>
    <person id="ped141" type="ped_pedestrian" depart="617.99">
        <walk edges="171867136#0 706734276#3 706734276#2 288926324#5 288926324#4 288926324#3 288926324#2 288926324#1 -288926324#0"/>
    </person>
    <person id="ped142" type="ped_pedestrian" depart="622.37">
        <walk edges="122612374#3 122612374#2 -186263433#0 -364433566 186263438#1 290625965 186263433#2 -706734275#1 -706734275#0 706734276#1 706734276#2"/>
    </person>
    <person id="ped144" type="ped_pedestrian" depart="631.13">
        <walk edges="-800610495#1 800610495#0 171867136#3 171867136#2 171867136#1 171867136#0 -706734276#3 -706734276#2 -288926324#5 -288926324#4"/>
    </person>
    <person id="ped147" type="ped_pedestrian" depart="644.28">
        <walk edges="288926324#2 288926324#3 288926324#4 288926324#5 706734276#2 706734276#3 171867136#0 171867136#1 171867136#2 171867136#3 800610495#0 800610495#1 -171867130#1 -171867130#0 158486424#1"/>
    </person>
    <person id="ped148" type="ped_pedestrian" depart="648.67">
        <walk edges="-800610496 -800610495#0 -171867136#3 -171867136#2 -171867136#1 -171867136#0 706734276#4 706734275#0 706734275#1 706734275#2 706734275#3 -122612374#0"/>
    </person>
    <person id="ped158" type="ped_pedestrian" depart="692.50">
        <walk edges="-706734276#3 171867136#0 171867136#1 171867136#2 171867136#3 800610495#0 800610495#1 171867130#2"/>
    </person>
    <person id="ped160" type="ped_pedestrian" depart="701.26">
        <walk edges="706173406 706173404#1 706734268 -133755118#2 -588939865 -374530997#1 804207591#4"/>
    </person>
    <person id="ped165" type="ped_pedestrian" depart="723.18">
        <walk edges="306475950 171902831#0 171867136#2 171867136#1 171867136#0 -706734276#3 -706734276#2 -288926324#5 -288926324#4 -288926324#3 -288926324#2 -288926324#1"/>
    </person>
    <person id="ped167" type="ped_pedestrian" depart="731.94">
        <walk edges="706318012 543879349#1 -133755127#1 133755127#0 133755118#2 706734268 706173404#1"/>
    </person>
    <person id="ped174" type="ped_pedestrian" depart="762.62">
        <walk edges="171867136#2 171867136#1 171867136#0 -706734276#3 -706734276#2 -706734276#1"/>
    </person>
    <person id="ped176" type="ped_pedestrian" depart="771.39">
        <walk edges="800610498#0 -800610497 -171865797#7 -171865797#6 -171865797#5"/>
    </person>
    <person id="ped178" type="ped_pedestrian" depart="780.15">
        <walk edges="800715314 171867136#1 171867136#0 706734276#3 706734276#2 288926324#5 288926324#4 288926324#3 288926324#2 288926324#1 -288926324#0"/>
    </person>
    <person id="ped179" type="ped_pedestrian" depart="784.54">
        <walk edges="-171865797#3 -171865797#4 -171865797#5 -171865797#6 -171865797#7 -800610497 -800610498#0"/>
    </person>
    <person id="ped183" type="ped_pedestrian" depart="802.07">
        <walk edges="-236471193#0 288926324#4 -288926324#5 706734276#1 -706734275#0 -706734275#1 186263433#2 186263433#1"/>
    </person>
    <person id="ped186" type="ped_pedestrian" depart="815.22">
        <walk edges="288926324#2 288926324#3 288926324#4 288926324#5 706734276#2 706734276#3 171867136#0 171867136#1 171867136#2 171902831#0"/>
    </person>
    <person id="ped187" type="ped_pedestrian" depart="819.60">
        <walk edges="-706173404#2 706173404#2 706734268 133755118#2 133755127#0 -133755127#1"/>
    </person>
    <person id="ped195" type="ped_pedestrian" depart="854.66">
        <walk edges="706734276#1 706734276#4 -171867136#0 -171867136#1 -171867136#2 171867136#3 800610495#0 800610495#1 -171867130#1 171867130#0"/>
    </person>
    <person id="ped200" type="ped_pedestrian" depart="876.58">
        <walk edges="122612356#0 -122612374#0 706734275#3 706734275#2 706734275#1 706734275#0 706734276#1"/>
    </person>
    <person id="ped207" type="ped_pedestrian" depart="907.26">
        <walk edges="-186263438#0 706734275#3 -122612374#0 122612356#1"/>
    </person>
    <person id="ped209" type="ped_pedestrian" depart="916.02">
        <walk edges="-800384379 -800384378 -171865797#3 171865797#4 171865797#5 171867131"/>
    </person>
    <person id="ped215" type="ped_pedestrian" depart="942.32">
        <walk edges="-171867136#3 800610495#0 800610495#1 -171867130#1 800669882"/>
    </person>
    <person id="ped216" type="ped_pedestrian" depart="946.70">
        <walk edges="133755126#3 133755126#4 -133755126#5"/>
    </person>
    <person id="ped217" type="ped_pedestrian" depart="951.08">
        <walk edges="-186263438#1 186263438#1 -364433566 -186263433#0 122612374#2 609872584"/>
    </person>
    <person id="ped224" type="ped_pedestrian" depart="981.77">
        <walk edges="706734275#3 706734275#2 706734275#1 706734275#0 706734276#1 -288926324#5 -288926324#4 288926324#3"/>
    </person>
    <person id="ped225" type="ped_pedestrian" depart="986.15">
        <walk edges="122612356#1 -122612374#0 706734275#3 706734275#2 706734275#1 706734275#0 706734276#1 -288926324#5 288926324#4 -236471193#0 -236471193#1"/>
    </person>
    <person id="ped226" type="ped_pedestrian" depart="990.53">
        <walk edges="-186263438#1 290625965 -186263433#2 706734275#1 706734275#0 706734276#4 171867136#0 171867136#1"/>
    </person>
    <person id="ped232" type="ped_pedestrian" depart="1016.83">
        <walk edges="-186259469 -133755118#2 133755118#1 706318011 186254733#0 -133755126#3 -133755126#4 -133755126#5 186258773#0"/>
    </person>
    <person id="ped236" type="ped_pedestrian" depart="1034.36">
        <walk edges="-800610495#0 171867136#3 171867136#2 171867136#1 171867136#0 706734276#3 706734276#2"/>
    </person>
    <person id="ped239" type="ped_pedestrian" depart="1047.51">
        <walk edges="-706734275#0 706734276#4 -171867136#0 -122612356#1"/>
    </person>
    <person id="ped244" type="ped_pedestrian" depart="1069.42">
        <walk edges="-186258462 -133755126#7 -133755126#5 -186258453"/>
    </person>
    <person id="ped247" type="ped_pedestrian" depart="1082.57">
        <walk edges="-706734276#3 -171867136#0"/>
    </person>
    <person id="ped253" type="ped_pedestrian" depart="1108.87">
        <walk edges="-133755126#5 -133755126#4 -133755126#3 186254733#0 706318011 133755118#1 133755118#2 133755127#0 -706734273"/>
    </person>
    <person id="ped257" type="ped_pedestrian" depart="1126.40">
        <walk edges="-236471190 288926324#5 706734276#2 706734276#3 171867136#0 171867136#1 171867136#2 171867136#3 800610495#0 800610495#1 -171867130#1 171867130#0 -158486424#2"/>
    </person>
    <person id="ped262" type="ped_pedestrian" depart="1148.31">
        <walk edges="800669862 -800669862 -288926324#1 -288926324#2 -288926324#3 -288926324#4 -288926324#5 -706734276#2 -706734276#3 171867136#0 171867136#1 171867136#2 171867136#3 800610495#0 800610495#1 -171867130#1 -171867130#0 -158486424#1 171870085 -171870086#1"/>
    </person>
    <person id="ped263" type="ped_pedestrian" depart="1152.70">
        <walk edges="-122612374#4 -122612374#3 -122612374#2 186263433#0 186263433#1 186263433#2 -706734275#1 706734275#0 706734276#4 -171867136#0 -171867136#1 -171867136#2 -171867136#3 -800610495#0 -800610495#1 -171867130#2 -171867130#3"/>
    </person>
    <person id="ped272" type="ped_pedestrian" depart="1192.14">
        <walk edges="800669882 -171867130#1 800610495#1 800610495#0 171867136#3 171867136#2 171867136#1 171867136#0 -706734276#0"/>
    </person>
    <person id="ped273" type="ped_pedestrian" depart="1196.53">
        <walk edges="186263438#0 186263438#1 290625965 -186263433#2 706734275#1 706734275#0 706734276#4 -171867136#0 -171867136#1 -171867136#2 171867136#3 800610495#0 800610495#1 -171867130#1 -171867130#0 -158486424#1 -158486424#0"/>
    </person>
    <person id="ped288" type="ped_pedestrian" depart="1262.27">
        <walk edges="-800610498#0 -800610497 -171865797#7 -171865797#6 -171865797#5 -171865797#4 -171865797#3 -171865797#2 -171865797#1 171865779 246989090"/>
    </person>
    <person id="ped293" type="ped_pedestrian" depart="1284.18">
        <walk edges="-706734273 133755127#0 133755118#2 -133755118#1"/>
    </person>
    <person id="ped298" type="ped_pedestrian" depart="1306.10">
        <walk edges="-122612374#1 -186263433#0 -364433566 186263438#1 290625965 186263433#2 -706734275#1 -706734275#0 706734276#1 -288926324#5 -288926324#4 -288926324#3 -288926324#2 -288926324#1 -800669862 800669862"/>
    </person>
    <person id="ped300" type="ped_pedestrian" depart="1314.86">
        <walk edges="122612374#3 122612374#2 -186263433#0 -364433566 186263438#1 290625965"/>
    </person>
    <person id="ped313" type="ped_pedestrian" depart="1371.84">
        <walk edges="122612374#2 -186263433#0 -364433566 186263438#1 290625965 186263433#2 -706734275#1 -706734275#0 706734276#1 -288926324#5 -288926324#4 236471193#0"/>
    </person>
    <person id="ped314" type="ped_pedestrian" depart="1376.22">
        <walk edges="804207591#4 374530997#1 133755118#3 133755118#2 133755118#1 706318011 -186254733#1 -133755126#2 133755126#3 133755126#4 133755126#5"/>
    </person>
    <person id="ped317" type="ped_pedestrian" depart="1389.37">
        <walk edges="-171867136#4 -171867136#3 -171867136#2 -171867136#1 -171867136#0 706734276#4 706734275#0 -706734275#1 186263433#2 186263433#1 186263433#0 -122612374#2"/>
    </person>
    <person id="ped335" type="ped_pedestrian" depart="1468.26">
        <walk edges="804217356#8 -306475941#2"/>
    </person>
    <person id="ped337" type="ped_pedestrian" depart="1477.03">
        <walk edges="288926324#2 288926324#1 800669862"/>
    </person>
    <person id="ped338" type="ped_pedestrian" depart="1481.41">
        <walk edges="-186254733#0 -186254733#1"/>
    </person>
    <person id="ped340" type="ped_pedestrian" depart="1490.18">
        <walk edges="-171867136#3 800610495#0 800610495#1 -171867130#1 -171867130#0 -158486424#1 -158486424#0"/>
    </person>
    <person id="ped341" type="ped_pedestrian" depart="1494.56">
        <walk edges="-122612356#0 -122612374#0 706734275#3 706734275#2 706734275#1 706734275#0 706734276#1 -288926324#5 -288926324#4 236471193#0 800669878 -800669878"/>
    </person>
    <person id="ped347" type="ped_pedestrian" depart="1520.86">
        <walk edges="171870085 -158486424#1 -171867130#0 -171867130#1 -800610495#1 800610496"/>
    </person>
    <person id="ped349" type="ped_pedestrian" depart="1529.63">
        <walk edges="171867136#4 171867136#3 171867136#2 171867136#1 171867136#0 706734276#3"/>
    </person>
    <person id="ped350" type="ped_pedestrian" depart="1534.01">
        <walk edges="374530997#0 -374530997#0 133755118#3 133755127#0 -133755127#1 -133755127#2"/>
    </person>
    <person id="ped354" type="ped_pedestrian" depart="1551.54">
        <walk edges="186258453 -133755126#4 -133755126#5 -186258773#0 186258773#1"/>
    </person>
    <person id="ped361" type="ped_pedestrian" depart="1582.22">
        <walk edges="800669876 -800669876 -288926324#2 -288926324#3 -288926324#4 -288926324#5 706734276#1 -706734275#0 817230302"/>
    </person>
    <person id="ped362" type="ped_pedestrian" depart="1586.60">
        <walk edges="171902831#0 171867136#2 171867136#1 171867136#0 -706734276#3 -706734276#2 -288926324#5 -288926324#4 -288926324#3 -288926324#2 -288926324#1"/>
    </person>
    <person id="ped372" type="ped_pedestrian" depart="1630.43">
        <walk edges="364433566 186263438#1 290625965 -186263433#2 706734275#1 706734275#0 706734276#4 -171867136#0 -171867136#1 -171867136#2 171867136#3 800610495#0 800610495#1 -171867130#1 -171867130#0 158486424#1"/>
    </person>
    <person id="ped379" type="ped_pedestrian" depart="1661.11">
        <walk edges="290625964 288926324#3 288926324#4 288926324#5 706734276#2 706734276#3 171867136#0 171867136#1 171867136#2 171867136#3 800610495#0 -800610495#1 -171867130#2 171867130#3"/>
    </person>
    <person id="ped380" type="ped_pedestrian" depart="1665.49">
        <walk edges="290625965 -186263433#2 706734275#1 706734275#0 706734276#4 -171867136#0 -171867136#1 -171867136#2 -171902831#0 -171902831#1"/>
    </person>
    <person id="ped381" type="ped_pedestrian" depart="1669.88">
        <walk edges="158486424#0 -158486424#1 -171867130#0 -171867130#1 800610495#1 800610495#0"/>
    </person>
    <person id="ped389" type="ped_pedestrian" depart="1704.94">
        <walk edges="374531000 -186258773#0 -133755126#5 -133755126#4 -133755126#3 186254733#0 706318011 133755118#1"/>
    </person>
    <person id="ped393" type="ped_pedestrian" depart="1722.47">
        <walk edges="158486424#1 -171867130#0 -171867130#1 800610495#1 800610495#0 171867136#3 -171867136#2 -171867136#1 -171867136#0 706734276#4 706734275#0 -706734275#1"/>
    </person>
    <person id="ped395" type="ped_pedestrian" depart="1731.24">
        <walk edges="706734269 -133755126#5 -133755126#4 -133755126#3 186254733#0 706318011 133755118#1 706734268 706173404#1 706173406"/>
    </person>
    <person id="ped401" type="ped_pedestrian" depart="1757.53">
        <walk edges="122612374#3 122612374#2 -186263433#0 -364433566 186263438#1 290625965 -186263433#2 706734275#1 706734275#0 706734276#4 -171867136#0 -171867136#1 -171867136#2 -171867136#3 -800610495#0 -800610495#1 -171867130#2"/>
    </person>
    <person id="ped402" type="ped_pedestrian" depart="1761.92">
        <walk edges="133755127#0 133755118#3 -374530997#0"/>
    </person>
    <person id="ped408" type="ped_pedestrian" depart="1788.22">
        <walk edges="288926324#3 -288926324#4 -288926324#5 706734276#1 -706734275#0 -706734275#1 186263433#2 186263433#1 186263433#0"/>
    </person>
    <person id="ped409" type="ped_pedestrian" depart="1792.60">
        <walk edges="306475950 -171902831#0 -171867136#2 -171867136#1 -171867136#0 706734276#4 706734275#0 -706734275#1"/>
    </person>
    <person id="ped412" type="ped_pedestrian" depart="1805.75">
        <walk edges="-133755126#1 186254733#1 706318011 133755118#1 133755118#2"/>
    </person>
    <person id="ped423" type="ped_pedestrian" depart="1853.96">
        <walk edges="186263438#1 290625965"/>
    </person>
    <person id="ped424" type="ped_pedestrian" depart="1858.34">
        <walk edges="706318012 543879349#1 -133755127#1 133755127#0 133755118#2 -133755118#1 -133755118#0 -133755126#0"/>
    </person>
    <person id="ped435" type="ped_pedestrian" depart="1906.55">
        <walk edges="-171867136#1 -171867136#2 171867136#3 800610495#0 800610495#1 -171867130#1 -171867130#0 -158486424#1"/>
    </person>
    <person id="ped437" type="ped_pedestrian" depart="1915.32">
        <walk edges="-186263433#2 706734275#1 706734275#0 706734276#4"/>
    </person>
    <person id="ped439" type="ped_pedestrian" depart="1924.08">
        <walk edges="-236471193#0"/>
    </person>
    <person id="ped442" type="ped_pedestrian" depart="1937.23">
        <walk edges="-171867133 -800610499"/>
    </person>
    <person id="ped444" type="ped_pedestrian" depart="1946.00">
        <walk edges="171867136#1 171867136#2 171867136#3 800610495#0 -800610495#1"/>
    </person>
    <person id="ped446" type="ped_pedestrian" depart="1954.76">
        <walk edges="-171870086#1 171870085 -158486424#1 -171867130#0 -171867130#1 800610495#1 800610495#0 171867136#3 -171867136#2 -171867136#1 -171867136#0 706734276#4 706734275#0 -706734275#1"/>
    </person>
    <person id="ped447" type="ped_pedestrian" depart="1959.15">
        <walk edges="122612374#1 -706734275#3 186263438#0 186263438#1 290625965 -186263433#1"/>
    </person>
    <person id="ped448" type="ped_pedestrian" depart="1963.53">
        <walk edges="171865797#0 171865797#1"/>
    </person>
    <person id="ped449" type="ped_pedestrian" depart="1967.91">
        <walk edges="804217356#8 804217356#6 804217356#4 -306475940#1"/>
    </person>
    <person id="ped457" type="ped_pedestrian" depart="2002.98">
        <walk edges="171867136#0 171867136#1 171867136#2 171867136#3 800610495#0 800610495#1 171867130#2"/>
    </person>
    <person id="ped462" type="ped_pedestrian" depart="2024.89">
        <walk edges="-800610499 -800610497 -171865797#7 -171865797#6 171865797#5 171865797#4 171865797#3 171865797#2"/>
    </person>
    <person id="ped463" type="ped_pedestrian" depart="2029.27">
        <walk edges="246989090 -171865792#2"/>
    </person>
    <person id="ped465" type="ped_pedestrian" depart="2038.04">
        <walk edges="-171867136#3 -171867136#2 -171867136#1 171867136#0 706734276#3 -171867126"/>
    </person>
    <person id="ped466" type="ped_pedestrian" depart="2042.42">
        <walk edges="133755127#0 133755118#3 -374530997#1 804207591#0"/>
    </person>
    <person id="ped472" type="ped_pedestrian" depart="2068.72">
        <walk edges="800715314 171867136#2 171867136#3 800610495#0 800610495#1 -171867130#1 -171867130#0"/>
    </person>
    <person id="ped475" type="ped_pedestrian" depart="2081.87">
        <walk edges="804207582 804217356#1 306475941#0 306475941#1 306475942#1 306475943#0 306475944"/>
    </person>
    <person id="ped478" type="ped_pedestrian" depart="2095.02">
        <walk edges="-800669882 -171867130#1 800610495#1 800610495#0 171867136#3 171902831#0"/>
    </person>
    <person id="ped482" type="ped_pedestrian" depart="2112.55">
        <walk edges="-133755118#0 -133755118#1 133755118#2 133755127#0 706734273"/>
    </person>
    <person id="ped483" type="ped_pedestrian" depart="2116.93">
        <walk edges="171865792#0 171865779 -171865797#1 -171865797#2 -171865797#3 -171865797#4 720452476"/>
    </person>
    <person id="ped484" type="ped_pedestrian" depart="2121.31">
        <walk edges="-186258462 133755126#8 133755126#9 -133755126#9"/>
    </person>
    <person id="ped487" type="ped_pedestrian" depart="2134.46">
        <walk edges="-171867129 171865797#4 171865797#5 -171865797#6 -171865797#7 -800610497 800610499"/>
    </person>
    <person id="ped491" type="ped_pedestrian" depart="2151.99">
        <walk edges="171902831#0 171867136#2 171867136#1 171867136#0 706734276#3 706734276#2 288926324#5 288926324#4 288926324#3 288926324#2"/>
    </person>
    <person id="ped492" type="ped_pedestrian" depart="2156.38">
        <walk edges="800610499 -800610497 -171865797#7 -171865797#6 -171865797#5 -171865797#4 -171865797#3 -800384378 -800384380"/>
    </person>
    <person id="ped494" type="ped_pedestrian" depart="2165.14">
        <walk edges="-800384379 -800384378 -171865797#2 -171865797#1 -171865797#0"/>
    </person>
    <person id="ped503" type="ped_pedestrian" depart="2204.59">
        <walk edges="609872584 122612374#2 -186263433#0 -364433566 186263438#1 290625965 -186263433#2 706734275#1 706734275#0 706734276#4 -171867136#0 -171867136#1 -171867136#2 171867136#3 800610495#0 800610495#1 -171867130#1 -800669882"/>
    </person>
    <person id="ped504" type="ped_pedestrian" depart="2208.97">
        <walk edges="171870085 -158486424#1 -171867130#0 -171867130#1 800610495#1 800610495#0 171867136#3 171867136#2"/>
    </person>
    <person id="ped507" type="ped_pedestrian" depart="2222.12">
        <walk edges="-171865797#8 171865797#8 171865797#7 171865797#6 171865797#5 171865797#4 171865797#3 171865797#2 171865797#1 -171865779 171865792#2"/>
    </person>
    <person id="ped509" type="ped_pedestrian" depart="2230.89">
        <walk edges="-186254733#0 -186254733#1 -133755126#2 133755126#3 133755126#4 133755126#5 -186254736"/>
    </person>
    <person id="ped511" type="ped_pedestrian" depart="2239.65">
        <walk edges="-171867130#2 -800610495#1 -800610495#0 -171867136#3 -171867136#2 -171867136#1 -171867136#0 706734276#4 706734276#1"/>
    </person>
    <person id="ped514" type="ped_pedestrian" depart="2252.80">
        <walk edges="-236471190 288926324#5 706734276#2 706734276#3 171867136#0 -171867136#1 -171867136#2 -171867136#3"/>
    </person>