<?xml version="1.0" encoding="UTF-8"?>

<!-- generated on Wed Nov 25 19:52:12 2020 by Eclipse SUMO duarouter Version 1.7.0
<configuration xmlns:xsi="http://www.w3.org/2001/XMLSchema-instance" xsi:noNamespaceSchemaLocation="http://sumo.dlr.de/xsd/duarouterConfiguration.xsd">

    <input>
        <net-file value="/home/shashwath/Sumo/2020-11-25-19-52-06/osm.net.xml"/>
        <route-files value="/home/shashwath/Sumo/2020-11-25-19-52-06/osm.motorcycle.trips.xml"/>
    </input>

    <output>
        <output-file value="/home/shashwath/Sumo/2020-11-25-19-52-06/osm.motorcycle.trips.xml.tmp"/>
        <write-trips value="true"/>
    </output>

    <time>
        <begin value="0"/>
        <end value="3600"/>
    </time>

    <report>
        <no-warnings value="true"/>
        <ignore-errors value="true"/>
        <no-step-log value="true"/>
    </report>

</configuration>
-->

<routes xmlns:xsi="http://www.w3.org/2001/XMLSchema-instance" xsi:noNamespaceSchemaLocation="http://sumo.dlr.de/xsd/routes_file.xsd">
    <vType id="moto_motorcycle" vClass="motorcycle"/>
    <trip id="moto0" type="moto_motorcycle" depart="0.00" departLane="best" from="186254733#0" to="-133755118#0"/>
    <trip id="moto3" type="moto_motorcycle" depart="24.50" departLane="best" from="-186263433#1" to="133755126#9"/>
    <trip id="moto4" type="moto_motorcycle" depart="32.66" departLane="best" from="-133755118#0" to="-186254733#0"/>
    <trip id="moto5" type="moto_motorcycle" depart="40.83" departLane="best" from="186258453" to="171865797#4"/>
    <trip id="moto6" type="moto_motorcycle" depart="49.00" departLane="best" from="-186263433#2" to="171867131"/>
    <trip id="moto7" type="moto_motorcycle" depart="57.16" departLane="best" from="374529118#6" to="-122612356#1"/>
    <trip id="moto8" type="moto_motorcycle" depart="65.33" departLane="best" from="374529118#5" to="288926324#4"/>
    <trip id="moto9" type="moto_motorcycle" depart="73.49" departLane="best" from="-374530997#1" to="-171867136#0"/>
    <trip id="moto10" type="moto_motorcycle" depart="81.66" departLane="best" from="800669862" to="-374530997#0"/>
    <trip id="moto11" type="moto_motorcycle" depart="89.83" departLane="best" from="-171865797#1" to="-171865797#3"/>
    <trip id="moto12" type="moto_motorcycle" depart="97.99" departLane="best" from="374533524#2" to="171867136#2"/>
    <trip id="moto13" type="moto_motorcycle" depart="106.16" departLane="best" from="374529118#5" to="306475942#0"/>
    <trip id="moto14" type="moto_motorcycle" depart="114.32" departLane="best" from="-706734276#2" to="171865797#6"/>
    <trip id="moto15" type="moto_motorcycle" depart="122.49" departLane="best" from="374529123" to="171870082"/>
    <trip id="moto16" type="moto_motorcycle" depart="130.66" departLane="best" from="374533524#6" to="171867130#0"/>
    <trip id="moto17" type="moto_motorcycle" depart="138.82" departLane="best" from="-186263438#1" to="-306475942#1"/>
    <trip id="moto18" type="moto_motorcycle" depart="146.99" departLane="best" from="-171865792#2" to="-236471193#0"/>
    <trip id="moto19" type="moto_motorcycle" depart="155.15" departLane="best" from="171902831#1" to="-706734275#2"/>
    <trip id="moto20" type="moto_motorcycle" depart="163.32" departLane="best" from="-706734276#0" to="-186258462"/>
    <trip id="moto22" type="moto_motorcycle" depart="179.65" departLane="best" from="186258453" to="171867136#4"/>
    <trip id="moto23" type="moto_motorcycle" depart="187.82" departLane="best" from="-171867136#3" to="-706734276#3"/>
    <trip id="moto25" type="moto_motorcycle" depart="204.15" departLane="best" from="171865797#7" to="288926324#0"/>
    <trip id="moto26" type="moto_motorcycle" depart="212.32" departLane="best" from="374533523#1" to="374529112#0"/>
    <trip id="moto27" type="moto_motorcycle" depart="220.48" departLane="best" from="-186263438#1" to="-133755118#2"/>
    <trip id="moto29" type="moto_motorcycle" depart="236.81" departLane="best" from="-186258462" to="800610495#1"/>
    <trip id="moto30" type="moto_motorcycle" depart="244.98" departLane="best" from="374533525#3" to="-306475950"/>
    <trip id="moto31" type="moto_motorcycle" depart="253.15" departLane="best" from="186263433#0" to="-800610495#0"/>
    <trip id="moto32" type="moto_motorcycle" depart="261.31" departLane="best" from="706734276#2" to="133055393#0"/>
    <trip id="moto35" type="moto_motorcycle" depart="285.81" departLane="best" from="171867130#2" to="706734275#0"/>
    <trip id="moto36" type="moto_motorcycle" depart="293.97" departLane="best" from="-800610495#1" to="-186263433#2"/>
    <trip id="moto37" type="moto_motorcycle" depart="302.14" departLane="best" from="817230302" to="158486424#0"/>
    <trip id="moto38" type="moto_motorcycle" depart="310.31" departLane="best" from="-171865797#1" to="-133755126#4"/>
    <trip id="moto39" type="moto_motorcycle" depart="318.47" departLane="best" from="374529118#1" to="-800669878"/>
    <trip id="moto40" type="moto_motorcycle" depart="326.64" departLane="best" from="-158486424#0" to="-706734276#3"/>
    <trip id="moto41" type="moto_motorcycle" depart="334.80" departLane="best" departSpeed="max" from="804207591#0" to="374533524#6"/>
    <trip id="moto42" type="moto_motorcycle" depart="342.97" departLane="best" from="-122612374#1" to="306475941#0"/>
    <trip id="moto43" type="moto_motorcycle" depart="351.14" departLane="best" from="246989090" to="171865797#1"/>
    <trip id="moto44" type="moto_motorcycle" depart="359.30" departLane="best" from="-171865797#7" to="-817230302"/>
    <trip id="moto45" type="moto_motorcycle" depart="367.47" departLane="best" from="122612374#3" to="800610499"/>
    <trip id="moto47" type="moto_motorcycle" depart="383.80" departLane="best" from="133755126#7" to="-171870082"/>
    <trip id="moto48" type="moto_motorcycle" depart="391.97" departLane="best" from="706734276#1" to="374533525#2"/>
    <trip id="moto50" type="moto_motorcycle" depart="408.30" departLane="best" from="171867136#4" to="-171867136#0"/>
    <trip id="moto51" type="moto_motorcycle" depart="416.46" departLane="best" from="373896382#1" to="171865797#2"/>
    <trip id="moto52" type="moto_motorcycle" depart="424.63" departLane="best" from="374529112#1" to="171865792#3"/>
    <trip id="moto53" type="moto_motorcycle" depart="432.80" departLane="best" from="-122612356#0" to="-373896382#3"/>
    <trip id="moto54" type="moto_motorcycle" depart="440.96" departLane="best" from="-122612374#3" to="800384378"/>
    <trip id="moto55" type="moto_motorcycle" depart="449.13" departLane="best" from="374533525#4" to="374530997#0"/>
    <trip id="moto57" type="moto_motorcycle" depart="465.46" departLane="best" from="374533525#4" to="800610498#0"/>
    <trip id="moto58" type="moto_motorcycle" depart="473.63" departLane="best" from="373896382#3" to="-171867129"/>
    <trip id="moto59" type="moto_motorcycle" depart="481.79" departLane="best" from="-800669878" to="-186258462"/>
    <trip id="moto60" type="moto_motorcycle" depart="489.96" departLane="best" from="-186254733#1" to="-306475948"/>
    <trip id="moto62" type="moto_motorcycle" depart="506.29" departLane="best" from="122612356#0" to="158486424#2"/>
    <trip id="moto63" type="moto_motorcycle" depart="514.46" departLane="best" from="-171867126" to="-186263438#0"/>
    <trip id="moto64" type="moto_motorcycle" depart="522.62" departLane="best" from="-236471190" to="-186263433#2"/>
    <trip id="moto65" type="moto_motorcycle" depart="530.79" departLane="best" from="-158486424#2" to="171870086#1"/>
    <trip id="moto66" type="moto_motorcycle" depart="538.95" departLane="best" from="-186263438#1" to="706734275#2"/>
    <trip id="moto67" type="moto_motorcycle" depart="547.12" departLane="best" from="374533524#5" to="-158486424#2"/>
    <trip id="moto68" type="moto_motorcycle" depart="555.29" departLane="best" from="-236471193#1" to="186263438#1"/>
    <trip id="moto69" type="moto_motorcycle" depart="563.45" departLane="best" from="-186263433#0" to="-171867130#0"/>
    <trip id="moto70" type="moto_motorcycle" depart="571.62" departLane="best" from="800384380" to="171867128"/>
    <trip id="moto71" type="moto_motorcycle" depart="579.78" departLane="best" from="133755118#2" to="374529112#3"/>
    <trip id="moto72" type="moto_motorcycle" depart="587.95" departLane="best" from="374529118#6" to="-171902831#0"/>
    <trip id="moto73" type="moto_motorcycle" depart="596.12" departLane="best" from="-800610496" to="-374530997#1"/>
    <trip id="moto74" type="moto_motorcycle" depart="604.28" departLane="best" from="374533524#6" to="-288926324#1"/>
    <trip id="moto75" type="moto_motorcycle" depart="612.45" departLane="best" from="-171902831#0" to="122612374#2"/>
    <trip id="moto76" type="moto_motorcycle" depart="620.61" departLane="best" from="-288926324#2" to="706734276#4"/>
    <trip id="moto77" type="moto_motorcycle" depart="628.78" departLane="best" from="122612374#0" to="374533524#6"/>
    <trip id="moto78" type="moto_motorcycle" depart="636.95" departLane="best" from="171865797#5" to="-133755126#5"/>
    <trip id="moto79" type="moto_motorcycle" depart="645.11" departLane="best" from="817230302" to="374530997#1"/>
    <trip id="moto80" type="moto_motorcycle" depart="653.28" departLane="best" from="374533524#2" to="-171867136#4"/>
    <trip id="moto81" type="moto_motorcycle" depart="661.44" departLane="best" from="133755126#2" to="-186263433#0"/>
    <trip id="moto82" type="moto_motorcycle" depart="669.61" departLane="best" from="-800610495#1" to="-133755126#8"/>
    <trip id="moto84" type="moto_motorcycle" depart="685.94" departLane="best" from="122612374#3" to="-800669878"/>
    <trip id="moto86" type="moto_motorcycle" depart="702.27" departLane="best" from="-133755126#8" to="171867130#2"/>
    <trip id="moto87" type="moto_motorcycle" depart="710.44" departLane="best" from="133755126#8" to="374533524#3"/>
    <trip id="moto88" type="moto_motorcycle" depart="718.61" departLane="best" from="-171867136#1" to="800669878"/>
    <trip id="moto89" type="moto_motorcycle" depart="726.77" departLane="best" from="171867136#0" to="236471193#0"/>
    <trip id="moto90" type="moto_motorcycle" depart="734.94" departLane="best" from="-236471193#0" to="-171867126"/>
    <trip id="moto91" type="moto_motorcycle" depart="743.10" departLane="best" from="171867135" to="171870082"/>
    <trip id="moto92" type="moto_motorcycle" depart="751.27" departLane="best" from="-800669862" to="171867130#2"/>
    <trip id="moto93" type="moto_motorcycle" depart="759.44" departLane="best" from="171865792#0" to="800384380"/>
    <trip id="moto94" type="moto_motorcycle" depart="767.60" departLane="best" from="-186254736" to="306475940#1"/>
    <trip id="moto95" type="moto_motorcycle" depart="775.77" departLane="best" from="-236471193#1" to="-800610495#0"/>
    <trip id="moto96" type="moto_motorcycle" depart="783.93" departLane="best" from="-373896382#0" to="306475948"/>
    <trip id="moto97" type="moto_motorcycle" depart="792.10" departLane="best" from="-158486424#2" to="122612374#4"/>
    <trip id="moto98" type="moto_motorcycle" depart="800.27" departLane="best" from="-171865779" to="-186263433#0"/>
    <trip id="moto100" type="moto_motorcycle" depart="816.60" departLane="best" from="374533525#5" to="374533525#4"/>
    <trip id="moto101" type="moto_motorcycle" depart="824.76" departLane="best" from="-706734276#0" to="-171867136#1"/>
    <trip id="moto102" type="moto_motorcycle" depart="832.93" departLane="best" from="374530997#0" to="288926324#5"/>
    <trip id="moto103" type="moto_motorcycle" depart="841.09" departLane="best" from="171867138" to="804217356#8"/>
    <trip id="moto104" type="moto_motorcycle" depart="849.26" departLane="best" from="186258462" to="-122612374#0"/>
    <trip id="moto105" type="moto_motorcycle" depart="857.43" departLane="best" from="186263433#2" to="800610495#0"/>
    <trip id="moto106" type="moto_motorcycle" depart="865.59" departLane="best" from="-171867130#1" to="-171865797#8"/>
    <trip id="moto107" type="moto_motorcycle" depart="873.76" departLane="best" from="-171865797#6" to="171865797#6"/>
    <trip id="moto111" type="moto_motorcycle" depart="906.42" departLane="best" from="133755126#3" to="706734275#2"/>
    <trip id="moto112" type="moto_motorcycle" depart="914.59" departLane="best" from="374533524#1" to="-171865797#1"/>
    <trip id="moto113" type="moto_motorcycle" depart="922.75" departLane="best" from="-122612356#1" to="373896382#5"/>
    <trip id="moto114" type="moto_motorcycle" depart="930.92" departLane="best" from="171902831#1" to="-288926324#5"/>
    <trip id="moto115" type="moto_motorcycle" depart="939.09" departLane="best" from="-800715314" to="-122612374#0"/>
    <trip id="moto116" type="moto_motorcycle" depart="947.25" departLane="best" from="706734275#2" to="171865797#4"/>
    <trip id="moto117" type="moto_motorcycle" depart="955.42" departLane="best" from="374530997#1" to="171867130#2"/>
    <trip id="moto118" type="moto_motorcycle" depart="963.58" departLane="best" from="-171867133" to="-171867129"/>
    <trip id="moto119" type="moto_motorcycle" depart="971.75" departLane="best" from="374529118#2" to="374533524#6"/>
    <trip id="moto120" type="moto_motorcycle" depart="979.92" departLane="best" from="706734275#0" to="-186258462"/>
    <trip id="moto121" type="moto_motorcycle" depart="988.08" departLane="best" from="-288926324#2" to="-171865797#4"/>
    <trip id="moto122" type="moto_motorcycle" depart="996.25" departLane="best" from="374529112#1" to="578203893"/>
    <trip id="moto123" type="moto_motorcycle" depart="1004.41" departLane="best" from="-800610497" to="171870082"/>
    <trip id="moto124" type="moto_motorcycle" depart="1012.58" departLane="best" from="-171867136#0" to="800384378"/>
    <trip id="moto125" type="moto_motorcycle" depart="1020.75" departLane="best" from="374533525#0" to="804217356#1"/>
    <trip id="moto126" type="moto_motorcycle" depart="1028.91" departLane="best" from="374529118#7" to="374533525#5"/>
    <trip id="moto127" type="moto_motorcycle" depart="1037.08" departLane="best" from="-133755118#0" to="306475942#2"/>
    <trip id="moto128" type="moto_motorcycle" depart="1045.24" departLane="best" from="-373896382#5" to="800384379"/>
    <trip id="moto129" type="moto_motorcycle" depart="1053.41" departLane="best" from="374529118#4" to="374533525#0"/>
    <trip id="moto130" type="moto_motorcycle" depart="1061.58" departLane="best" from="374529112#3" to="-171865797#6"/>
    <trip id="moto131" type="moto_motorcycle" depart="1069.74" departLane="best" from="374533525#2" to="374533524#5"/>
    <trip id="moto132" type="moto_motorcycle" depart="1077.91" departLane="best" from="-186263433#2" to="374529120#0"/>
    <trip id="moto133" type="moto_motorcycle" depart="1086.07" departLane="best" from="133055393#0" to="-306475943#2"/>
    <trip id="moto134" type="moto_motorcycle" depart="1094.24" departLane="best" from="374529118#2" to="-186263438#1"/>
    <trip id="moto135" type="moto_motorcycle" depart="1102.41" departLane="best" from="-133755118#0" to="-171902831#1"/>
    <trip id="moto136" type="moto_motorcycle" depart="1110.57" departLane="best" from="-373896382#4" to="374533525#0"/>
    <trip id="moto137" type="moto_motorcycle" depart="1118.74" departLane="best" from="804207582" to="-306475941#1"/>
    <trip id="moto138" type="moto_motorcycle" depart="1126.90" departLane="best" from="186254733#1" to="-800610495#1"/>
    <trip id="moto139" type="moto_motorcycle" depart="1135.07" departLane="best" from="800610495#0" to="-171865797#8"/>
    <trip id="moto140" type="moto_motorcycle" depart="1143.24" departLane="best" departSpeed="max" from="804207591#0" to="-171870082"/>
    <trip id="moto142" type="moto_motorcycle" depart="1159.57" departLane="best" from="-171865797#6" to="-817230302"/>
    <trip id="moto144" type="moto_motorcycle" depart="1175.90" departLane="best" from="171867136#3" to="158486424#0"/>
    <trip id="moto145" type="moto_motorcycle" depart="1184.07" departLane="best" from="-720452476" to="171867130#0"/>
    <trip id="moto147" type="moto_motorcycle" depart="1200.40" departLane="best" from="-122612356#0" to="720452476"/>
    <trip id="moto149" type="moto_motorcycle" depart="1216.73" departLane="best" from="-706734275#2" to="-158486424#2"/>
    <trip id="moto150" type="moto_motorcycle" depart="1224.90" departLane="best" from="186263433#2" to="-373896382#5"/>
    <trip id="moto151" type="moto_motorcycle" depart="1233.06" departLane="best" from="-306475950" to="374533524#2"/>
    <trip id="moto152" type="moto_motorcycle" depart="1241.23" departLane="best" from="306475941#0" to="-306475943#1"/>
    <trip id="moto153" type="moto_motorcycle" depart="1249.39" departLane="best" from="-306475948" to="-800610497"/>
    <trip id="moto154" type="moto_motorcycle" depart="1257.56" departLane="best" from="-800610496" to="-306475942#2"/>
    <trip id="moto155" type="moto_motorcycle" depart="1265.73" departLane="best" from="-171867129" to="-800669862"/>
    <trip id="moto156" type="moto_motorcycle" depart="1273.89" departLane="best" from="800610495#1" to="236471193#0"/>
    <trip id="moto157" type="moto_motorcycle" depart="1282.06" departLane="best" from="-122612356#0" to="-306475942#0"/>
    <trip id="moto159" type="moto_motorcycle" depart="1298.39" departLane="best" from="186263433#0" to="133055393#1"/>
    <trip id="moto160" type="moto_motorcycle" depart="1306.56" departLane="best" from="122612374#0" to="-186263433#0"/>
    <trip id="moto161" type="moto_motorcycle" depart="1314.72" departLane="best" from="133755118#2" to="706734275#1"/>
    <trip id="moto162" type="moto_motorcycle" depart="1322.89" departLane="best" from="171902831#0" to="-374529123"/>
    <trip id="moto163" type="moto_motorcycle" depart="1331.05" departLane="best" from="236471190" to="-186263438#0"/>
    <trip id="moto164" type="moto_motorcycle" depart="1339.22" departLane="best" from="-186254733#0" to="-133755118#0"/>
    <trip id="moto165" type="moto_motorcycle" depart="1347.38" departLane="best" from="374533524#2" to="-158486424#2"/>
    <trip id="moto166" type="moto_motorcycle" depart="1355.55" departLane="best" from="-171902831#1" to="288926324#3"/>
    <trip id="moto167" type="moto_motorcycle" depart="1363.72" departLane="best" from="186263433#0" to="-122612356#1"/>
    <trip id="moto168" type="moto_motorcycle" depart="1371.88" departLane="best" from="306475948" to="373896382#4"/>
    <trip id="moto169" type="moto_motorcycle" depart="1380.05" departLane="best" from="-171865797#6" to="-800669878"/>
    <trip id="moto170" type="moto_motorcycle" depart="1388.21" departLane="best" from="158486424#2" to="-133755126#5"/>
    <trip id="moto171" type="moto_motorcycle" depart="1396.38" departLane="best" from="-288926324#2" to="374533524#2"/>
    <trip id="moto172" type="moto_motorcycle" depart="1404.55" departLane="best" from="186263438#0" to="804217356#8"/>
    <trip id="moto173" type="moto_motorcycle" depart="1412.71" departLane="best" from="171867136#0" to="800610498#0"/>
    <trip id="moto176" type="moto_motorcycle" depart="1437.21" departLane="best" from="374530997#0" to="171865797#4"/>
    <trip id="moto177" type="moto_motorcycle" depart="1445.38" departLane="best" from="-288926324#1" to="171902831#1"/>
    <trip id="moto178" type="moto_motorcycle" depart="1453.54" departLane="best" from="373896382#3" to="171865779"/>
    <trip id="moto179" type="moto_motorcycle" depart="1461.71" departLane="best" from="171870086#0" to="-306475940#1"/>
    <trip id="moto180" type="moto_motorcycle" depart="1469.87" departLane="best" from="171865797#2" to="-171867130#2"/>
    <trip id="moto181" type="moto_motorcycle" depart="1478.04" departLane="best" from="-236471190" to="288926324#2"/>
    <trip id="moto182" type="moto_motorcycle" depart="1486.21" departLane="best" from="-800610497" to="171865797#3"/>
    <trip id="moto183" type="moto_motorcycle" depart="1494.37" departLane="best" from="-800610499" to="-186258453"/>
    <trip id="moto184" type="moto_motorcycle" depart="1502.54" departLane="best" from="-800669862" to="706734275#2"/>
    <trip id="moto185" type="moto_motorcycle" depart="1510.70" departLane="best" from="171867130#2" to="288926324#3"/>
    <trip id="moto186" type="moto_motorcycle" depart="1518.87" departLane="best" from="374533524#4" to="373896382#3"/>
    <trip id="moto187" type="moto_motorcycle" depart="1527.04" departLane="best" from="-706734276#3" to="-122612356#1"/>
    <trip id="moto189" type="moto_motorcycle" depart="1543.37" departLane="best" from="374533524#3" to="800610498#1"/>
    <trip id="moto190" type="moto_motorcycle" depart="1551.53" departLane="best" from="171865797#4" to="171867136#2"/>
    <trip id="moto191" type="moto_motorcycle" depart="1559.70" departLane="best" from="-186263433#2" to="-186263433#2"/>
    <trip id="moto192" type="moto_motorcycle" depart="1567.87" departLane="best" from="122612356#0" to="-133755118#1"/>
    <trip id="moto193" type="moto_motorcycle" depart="1576.03" departLane="best" from="-374530997#0" to="236471193#1"/>
    <trip id="moto194" type="moto_motorcycle" depart="1584.20" departLane="best" from="-800610496" to="-171867136#3"/>
    <trip id="moto195" type="moto_motorcycle" depart="1592.36" departLane="best" from="171870085" to="-133755118#1"/>
    <trip id="moto196" type="moto_motorcycle" depart="1600.53" departLane="best" from="-800384380" to="171865800"/>
    <trip id="moto197" type="moto_motorcycle" depart="1608.70" departLane="best" from="-133755118#1" to="186254733#1"/>
    <trip id="moto198" type="moto_motorcycle" depart="1616.86" departLane="best" from="-171867130#1" to="133055393#0"/>
    <trip id="moto199" type="moto_motorcycle" depart="1625.03" departLane="best" from="-133755126#5" to="-706734276#3"/>
    <trip id="moto200" type="moto_motorcycle" depart="1633.19" departLane="best" from="-186258462" to="-373896382#4"/>
    <trip id="moto201" type="moto_motorcycle" depart="1641.36" departLane="best" from="373896382#1" to="-706734276#3"/>
    <trip id="moto202" type="moto_motorcycle" depart="1649.53" departLane="best" from="306475948" to="374530997#0"/>
    <trip id="moto203" type="moto_motorcycle" depart="1657.69" departLane="best" from="-288926324#2" to="-171865792#2"/>
    <trip id="moto204" type="moto_motorcycle" depart="1665.86" departLane="best" from="-122612374#3" to="171865797#2"/>
    <trip id="moto206" type="moto_motorcycle" depart="1682.19" departLane="best" from="186258453" to="374529112#2"/>
    <trip id="moto207" type="moto_motorcycle" depart="1690.36" departLane="best" from="186258462" to="306475950"/>
    <trip id="moto208" type="moto_motorcycle" depart="1698.52" departLane="best" from="800610498#0" to="-186254733#1"/>
    <trip id="moto209" type="moto_motorcycle" depart="1706.69" departLane="best" from="-122612374#4" to="-171867135"/>
    <trip id="moto210" type="moto_motorcycle" depart="1714.85" departLane="best" from="-171867128" to="186263438#1"/>
    <trip id="moto211" type="moto_motorcycle" depart="1723.02" departLane="best" from="171865800" to="-186263433#1"/>
    <trip id="moto212" type="moto_motorcycle" depart="1731.19" departLane="best" from="288926324#4" to="373896382#3"/>
    <trip id="moto213" type="moto_motorcycle" depart="1739.35" departLane="best" from="-171867136#4" to="171867136#3"/>
    <trip id="moto214" type="moto_motorcycle" depart="1747.52" departLane="best" from="374529120#1" to="800715314"/>
    <trip id="moto215" type="moto_motorcycle" depart="1755.68" departLane="best" from="-306475948" to="236471193#0"/>
    <trip id="moto216" type="moto_motorcycle" depart="1763.85" departLane="best" from="800669862" to="-800610495#0"/>
    <trip id="moto217" type="moto_motorcycle" depart="1772.02" departLane="best" from="-171865797#4" to="373896382#5"/>
    <trip id="moto218" type="moto_motorcycle" depart="1780.18" departLane="best" from="374533524#2" to="171867136#1"/>
    <trip id="moto219" type="moto_motorcycle" depart="1788.35" departLane="best" from="374529112#2" to="-706318011"/>
    <trip id="moto220" type="moto_motorcycle" depart="1796.51" departLane="best" from="-800715314" to="-706734276#0"/>
    <trip id="moto221" type="moto_motorcycle" depart="1804.68" departLane="best" from="133755126#9" to="-374530997#1"/>
    <trip id="moto222" type="moto_motorcycle" depart="1812.85" departLane="best" from="374533524#2" to="374529122#0"/>
    <trip id="moto223" type="moto_motorcycle" depart="1821.01" departLane="best" from="-171865797#5" to="800669878"/>
    <trip id="moto224" type="moto_motorcycle" depart="1829.18" departLane="best" from="171902831#1" to="374529123"/>
    <trip id="moto228" type="moto_motorcycle" depart="1861.84" departLane="best" from="171865797#1" to="133755126#1"/>
    <trip id="moto229" type="moto_motorcycle" depart="1870.01" departLane="best" from="122612356#0" to="306475942#1"/>
    <trip id="moto231" type="moto_motorcycle" depart="1886.34" departLane="best" from="133055393#1" to="171867136#4"/>
    <trip id="moto232" type="moto_motorcycle" depart="1894.50" departLane="best" from="-706734276#3" to="-133755118#1"/>
    <trip id="moto233" type="moto_motorcycle" depart="1902.67" departLane="best" from="374533524#3" to="-171870085"/>
    <trip id="moto234" type="moto_motorcycle" depart="1910.84" departLane="best" from="-374530997#1" to="374533525#4"/>
    <trip id="moto235" type="moto_motorcycle" depart="1919.00" departLane="best" from="288926324#5" to="-306475941#0"/>
    <trip id="moto236" type="moto_motorcycle" depart="1927.17" departLane="best" from="-122612374#1" to="800610498#0"/>
    <trip id="moto237" type="moto_motorcycle" depart="1935.33" departLane="best" from="133755126#3" to="373896382#0"/>
    <trip id="moto238" type="moto_motorcycle" depart="1943.50" departLane="best" from="133755126#3" to="374529118#1"/>
    <trip id="moto239" type="moto_motorcycle" depart="1951.67" departLane="best" from="-171865797#2" to="-186263433#2"/>
    <trip id="moto240" type="moto_motorcycle" depart="1959.83" departLane="best" from="171867130#2" to="133755118#2"/>
    <trip id="moto241" type="moto_motorcycle" depart="1968.00" departLane="best" from="171865792#3" to="-800715314"/>
    <trip id="moto242" type="moto_motorcycle" depart="1976.16" departLane="best" from="-288926324#2" to="-171867126"/>
    <trip id="moto243" type="moto_motorcycle" depart="1984.33" departLane="best" from="-171902831#0" to="-171865800"/>
    <trip id="moto244" type="moto_motorcycle" depart="1992.50" departLane="best" from="171865797#1" to="373896382#1"/>
    <trip id="moto245" type="moto_motorcycle" depart="2000.66" departLane="best" from="-171870086#0" to="-186263433#1"/>
    <trip id="moto246" type="moto_motorcycle" depart="2008.83" departLane="best" from="133755126#1" to="306475941#2"/>
    <trip id="moto247" type="moto_motorcycle" depart="2016.99" departLane="best" from="-171902831#1" to="-186263438#1"/>
    <trip id="moto248" type="moto_motorcycle" depart="2025.16" departLane="best" from="-171870085" to="-122612374#2"/>
    <trip id="moto249" type="moto_motorcycle" depart="2033.33" departLane="best" from="288926324#3" to="-171867129"/>
    <trip id="moto250" type="moto_motorcycle" depart="2041.49" departLane="best" from="374533525#1" to="133755126#3"/>
    <trip id="moto251" type="moto_motorcycle" depart="2049.66" departLane="best" from="374533525#2" to="171867129"/>
    <trip id="moto252" type="moto_motorcycle" depart="2057.82" departLane="best" from="133755118#1" to="122612356#1"/>
    <trip id="moto253" type="moto_motorcycle" depart="2065.99" departLane="best" from="-171870086#0" to="-133755126#5"/>
    <trip id="moto254" type="moto_motorcycle" depart="2074.16" departLane="best" from="800610495#1" to="133755118#3"/>
    <trip id="moto255" type="moto_motorcycle" depart="2082.32" departLane="best" from="374529122#0" to="-800610495#1"/>
    <trip id="moto256" type="moto_motorcycle" depart="2090.49" departLane="best" from="-133755126#7" to="-171867133"/>
    <trip id="moto257" type="moto_motorcycle" depart="2098.65" departLane="best" from="373896382#3" to="171867136#3"/>
    <trip id="moto258" type="moto_motorcycle" depart="2106.82" departLane="best" from="374529118#1" to="-186263438#0"/>
    <trip id="moto259" type="moto_motorcycle" depart="2114.99" departLane="best" from="171865792#0" to="122612374#2"/>
    <trip id="moto260" type="moto_motorcycle" depart="2123.15" departLane="best" from="122612374#0" to="374533524#5"/>
    <trip id="moto261" type="moto_motorcycle" depart="2131.32" departLane="best" from="804217356#4" to="-306475943#2"/>
    <trip id="moto262" type="moto_motorcycle" depart="2139.48" departLane="best" from="171870082" to="171867136#4"/>
    <trip id="moto263" type="moto_motorcycle" depart="2147.65" departLane="best" from="-186258453" to="-186258462"/>
    <trip id="moto264" type="moto_motorcycle" depart="2155.82" departLane="best" from="186263433#1" to="-171867136#1"/>
    <trip id="moto265" type="moto_motorcycle" depart="2163.98" departLane="best" from="-122612356#0" to="122612374#2"/>
    <trip id="moto267" type="moto_motorcycle" depart="2180.31" departLane="best" from="288926324#5" to="122612374#3"/>
    <trip id="moto268" type="moto_motorcycle" depart="2188.48" departLane="best" from="288926324#0" to="720452476"/>
    <trip id="moto270" type="moto_motorcycle" depart="2204.81" departLane="best" from="186263433#2" to="800384380"/>
    <trip id="moto271" type="moto_motorcycle" depart="2212.98" departLane="best" from="-800669878" to="171865797#3"/>
    <trip id="moto272" type="moto_motorcycle" depart="2221.14" departLane="best" from="186254736" to="706734275#3"/>
    <trip id="moto273" type="moto_motorcycle" depart="2229.31" departLane="best" from="374529122#1" to="-158486424#2"/>
    <trip id="moto274" type="moto_motorcycle" depart="2237.48" departLane="best" from="-171867136#3" to="-306475944"/>
    <trip id="moto275" type="moto_motorcycle" depart="2245.64" departLane="best" from="288926324#1" to="288926324#4"/>