<?xml version="1.0" encoding="UTF-8"?>

<!-- generated on Wed Nov 25 19:52:10 2020 by Eclipse SUMO netconvert Version 1.7.0
<configuration xmlns:xsi="http://www.w3.org/2001/XMLSchema-instance" xsi:noNamespaceSchemaLocation="http://sumo.dlr.de/xsd/netconvertConfiguration.xsd">

    <input>
        <type-files value="/opt/sumo-1.7.0/data/typemap/osmNetconvert.typ.xml,/opt/sumo-1.7.0/data/typemap/osmNetconvertUrbanDe.typ.xml,/opt/sumo-1.7.0/data/typemap/osmNetconvertPedestrians.typ.xml,/opt/sumo-1.7.0/data/typemap/osmNetconvertBicycle.typ.xml"/>
        <osm-files value="osm_bbox.osm.xml"/>
    </input>

    <output>
        <output-file value="osm.net.xml"/>
        <output.street-names value="true"/>
        <output.original-names value="true"/>
    </output>

    <projection>
        <proj.utm value="true"/>
    </projection>

    <processing>
        <geometry.remove value="true"/>
        <roundabouts.guess value="true"/>
        <lefthand value="true"/>
    </processing>

    <tls_building>
        <tls.discard-simple value="true"/>
        <tls.join value="true"/>
        <tls.guess-signals value="true"/>
        <tls.default-type value="actuated"/>
    </tls_building>

    <ramp_guessing>
        <ramps.guess value="true"/>
    </ramp_guessing>

    <junctions>
        <junctions.join value="true"/>
        <junctions.corner-detail value="5"/>
    </junctions>

    <pedestrian>
        <crossings.guess value="true"/>
    </pedestrian>

    <report>
        <verbose value="true"/>
        <aggregate-warnings value="5"/>
    </report>

</configuration>
-->

<net version="1.6" junctionCornerDetail="5" walkingareas="true" lefthand="true" limitTurnSpeed="5.50" xmlns:xsi="http://www.w3.org/2001/XMLSchema-instance" xsi:noNamespaceSchemaLocation="http://sumo.dlr.de/xsd/net_file.xsd">

    <location netOffset="-475171.97,-1474282.43" convBoundary="0.00,-0.00,11669.14,3263.97" origBoundary="74.770726,13.335816,74.878474,13.365388" projParameter="+proj=utm +zone=43 +ellps=WGS84 +datum=WGS84 +units=m +no_defs"/>

    <type id="cycleway.lane" allow="bicycle" bikeLaneWidth="1.00"/>
    <type id="cycleway.opposite_lane" allow="bicycle" bikeLaneWidth="1.00"/>
    <type id="cycleway.opposite_track" allow="bicycle" bikeLaneWidth="1.50"/>
    <type id="cycleway.track" allow="bicycle" bikeLaneWidth="1.50"/>
    <type id="highway.bridleway" priority="1" numLanes="1" speed="2.78" allow="pedestrian" oneway="1" width="2.00"/>
    <type id="highway.bus_guideway" priority="1" numLanes="1" speed="13.89" allow="bus" oneway="1"/>
    <type id="highway.cycleway" priority="1" numLanes="1" speed="8.33" allow="bicycle" oneway="0" width="1.00"/>
    <type id="highway.footway" priority="1" numLanes="1" speed="2.78" allow="pedestrian" oneway="1" width="2.00"/>
    <type id="highway.ford" priority="1" numLanes="1" speed="2.78" allow="army" oneway="0"/>
    <type id="highway.living_street" priority="2" numLanes="1" speed="2.78" disallow="tram rail_urban rail rail_electric rail_fast ship" oneway="0"/>
    <type id="highway.motorway" priority="14" numLanes="2" speed="27.78" allow="private emergency authority army vip passenger hov taxi bus coach delivery truck trailer motorcycle evehicle custom1 custom2" oneway="1"/>
    <type id="highway.motorway_link" priority="9" numLanes="1" speed="16.67" allow="private emergency authority army vip passenger hov taxi bus coach delivery truck trailer motorcycle evehicle custom1 custom2" oneway="1"/>
    <type id="highway.path" priority="1" numLanes="1" speed="2.78" allow="pedestrian bicycle" oneway="1" width="2.00"/>
    <type id="highway.pedestrian" priority="1" numLanes="1" speed="2.78" allow="pedestrian" oneway="1" width="2.00"/>
    <type id="highway.primary" priority="12" numLanes="2" speed="13.89" disallow="pedestrian tram rail_urban rail rail_electric rail_fast ship" oneway="0" sidewalkWidth="3.00"/>
    <type id="highway.primary_link" priority="7" numLanes="1" speed="13.89" disallow="pedestrian tram rail_urban rail rail_electric rail_fast ship" oneway="0" sidewalkWidth="3.00"/>
    <type id="highway.raceway" priority="15" numLanes="2" speed="83.33" allow="vip" oneway="0"/>
    <type id="highway.residential" priority="3" numLanes="1" speed="13.89" disallow="pedestrian tram rail_urban rail rail_electric rail_fast ship" oneway="0" sidewalkWidth="2.00"/>
    <type id="highway.secondary" priority="11" numLanes="1" speed="13.89" disallow="pedestrian tram rail_urban rail rail_electric rail_fast ship" oneway="0" sidewalkWidth="3.00"/>
    <type id="highway.secondary_link" priority="6" numLanes="1" speed="13.89" disallow="pedestrian tram rail_urban rail rail_electric rail_fast ship" oneway="0" sidewalkWidth="3.00"/>
    <type id="highway.service" priority="1" numLanes="1" speed="5.56" allow="pedestrian delivery bicycle" oneway="0"/>
    <type id="highway.stairs" priority="1" numLanes="1" speed="1.39" allow="pedestrian" oneway="1" width="2.00"/>
    <type id="highway.step" priority="1" numLanes="1" speed="1.39" allow="pedestrian" oneway="1" width="2.00"/>
    <type id="highway.steps" priority="1" numLanes="1" speed="1.39" allow="pedestrian" oneway="1" width="2.00"/>
    <type id="highway.tertiary" priority="10" numLanes="1" speed="13.89" disallow="pedestrian tram rail_urban rail rail_electric rail_fast ship" oneway="0" sidewalkWidth="3.00"/>
    <type id="highway.tertiary_link" priority="5" numLanes="1" speed="13.89" disallow="pedestrian tram rail_urban rail rail_electric rail_fast ship" oneway="0" sidewalkWidth="2.00"/>
    <type id="highway.track" priority="1" numLanes="1" speed="5.56" allow="pedestrian motorcycle moped bicycle" oneway="0"/>
    <type id="highway.trunk" priority="13" numLanes="2" speed="13.89" disallow="pedestrian bicycle tram rail_urban rail rail_electric rail_fast ship" oneway="0"/>
    <type id="highway.trunk_link" priority="8" numLanes="1" speed="13.89" disallow="pedestrian bicycle tram rail_urban rail rail_electric rail_fast ship" oneway="0"/>
    <type id="highway.unclassified" priority="4" numLanes="1" speed="13.89" disallow="pedestrian tram rail_urban rail rail_electric rail_fast ship" oneway="0" sidewalkWidth="2.00"/>
    <type id="highway.unsurfaced" priority="1" numLanes="1" speed="8.33" disallow="tram rail_urban rail rail_electric rail_fast ship" oneway="0"/>
    <type id="railway.highspeed" priority="21" numLanes="1" speed="69.44" allow="rail_fast" oneway="1"/>
    <type id="railway.light_rail" priority="19" numLanes="1" speed="27.78" allow="rail_urban" oneway="1"/>
    <type id="railway.preserved" priority="16" numLanes="1" speed="27.78" allow="rail" oneway="1"/>
    <type id="railway.rail" priority="20" numLanes="1" speed="44.44" allow="rail" oneway="1"/>
    <type id="railway.subway" priority="18" numLanes="1" speed="27.78" allow="rail_urban" oneway="1"/>
    <type id="railway.tram" priority="17" numLanes="1" speed="13.89" allow="tram" oneway="1"/>

    <edge id=":1369614871_0" function="internal">
        <lane id=":1369614871_0_0" index="0" disallow="pedestrian tram rail_urban rail rail_electric rail_fast ship" speed="13.89" length="15.18" shape="2355.29,1273.69 2350.93,1272.54 2347.94,1271.79 2344.91,1271.18 2340.48,1270.41"/>
    </edge>
    <edge id=":1369614871_1" function="internal">
        <lane id=":1369614871_1_0" index="0" disallow="pedestrian tram rail_urban rail rail_electric rail_fast ship" speed="7.84" length="6.23" shape="2355.29,1273.69 2350.86,1273.18 2349.19,1273.75"/>
    </edge>
    <edge id=":1369614871_2" function="internal">
        <lane id=":1369614871_2_0" index="0" disallow="pedestrian tram rail_urban rail rail_electric rail_fast ship" speed="3.65" length="2.34" shape="2355.29,1273.69 2353.92,1274.16 2353.33,1274.83"/>
    </edge>
    <edge id=":1369614871_9" function="internal">
        <lane id=":1369614871_9_0" index="0" disallow="pedestrian tram rail_urban rail rail_electric rail_fast ship" speed="7.84" length="9.53" shape="2349.19,1273.75 2347.62,1274.29 2345.58,1277.04 2344.72,1281.41"/>
    </edge>
    <edge id=":1369614871_10" function="internal">
        <lane id=":1369614871_10_0" index="0" disallow="pedestrian tram rail_urban rail rail_electric rail_fast ship" speed="3.65" length="2.34" shape="2353.33,1274.83 2353.51,1275.70 2354.47,1276.78"/>
    </edge>
    <edge id=":1369614871_3" function="internal">
        <lane id=":1369614871_3_0" index="0" disallow="pedestrian tram rail_urban rail rail_electric rail_fast ship" speed="6.31" length="9.77" shape="2347.92,1281.57 2348.45,1278.86 2349.72,1277.16 2351.72,1276.46 2354.47,1276.78"/>
    </edge>
    <edge id=":1369614871_4" function="internal">
        <lane id=":1369614871_4_0" index="0" disallow="pedestrian tram rail_urban rail rail_electric rail_fast ship" speed="8.55" length="14.90" shape="2347.92,1281.57 2347.64,1277.19 2346.31,1273.87 2343.92,1271.61 2340.48,1270.41"/>
    </edge>
    <edge id=":1369614871_5" function="internal">
        <lane id=":1369614871_5_0" index="0" disallow="pedestrian tram rail_urban rail rail_electric rail_fast ship" speed="3.65" length="4.67" shape="2347.92,1281.57 2347.18,1280.33 2346.40,1279.89 2345.58,1280.25 2344.72,1281.41"/>
    </edge>
    <edge id=":1369614871_6" function="internal">
        <lane id=":1369614871_6_0" index="0" disallow="pedestrian tram rail_urban rail rail_electric rail_fast ship" speed="7.17" length="6.09" shape="2339.94,1273.56 2342.17,1274.38 2343.70,1275.96 2344.22,1277.38"/>
    </edge>
    <edge id=":1369614871_7" function="internal">
        <lane id=":1369614871_7_0" index="0" disallow="pedestrian tram rail_urban rail rail_electric rail_fast ship" speed="13.89" length="14.89" shape="2339.94,1273.56 2344.30,1274.32 2347.26,1274.92 2350.20,1275.65 2354.47,1276.78"/>
    </edge>
    <edge id=":1369614871_8" function="internal">
        <lane id=":1369614871_8_0" index="0" disallow="pedestrian tram rail_urban rail rail_electric rail_fast ship" speed="3.65" length="2.34" shape="2339.94,1273.56 2341.26,1272.97 2341.79,1272.25"/>
    </edge>
    <edge id=":1369614871_11" function="internal">
        <lane id=":1369614871_11_0" index="0" disallow="pedestrian tram rail_urban rail rail_electric rail_fast ship" speed="7.17" length="4.09" shape="2344.22,1277.38 2344.56,1278.30 2344.72,1281.41"/>
    </edge>
    <edge id=":1369614871_12" function="internal">
        <lane id=":1369614871_12_0" index="0" disallow="pedestrian tram rail_urban rail rail_electric rail_fast ship" speed="3.65" length="2.34" shape="2341.79,1272.25 2341.53,1271.39 2340.48,1270.41"/>
    </edge>
    <edge id=":1369614871_c0" function="crossing" crossingEdges="-171867136#0 171867136#0">
        <lane id=":1369614871_c0_0" index="0" allow="pedestrian" speed="1.00" length="6.40" width="4.00" shape="2352.13,1277.82 2353.76,1271.63"/>
    </edge>
    <edge id=":1369614871_c1" function="crossing" crossingEdges="-122612356#1 122612356#1">
        <lane id=":1369614871_c1_0" index="0" allow="pedestrian" speed="1.00" length="6.40" width="4.00" shape="2343.23,1279.33 2349.62,1279.65"/>
    </edge>
    <edge id=":1369614871_c2" function="crossing" crossingEdges="171867136#1 -171867136#1">
        <lane id=":1369614871_c2_0" index="0" allow="pedestrian" speed="1.00" length="6.40" width="4.00" shape="2342.71,1269.16 2341.65,1275.47"/>
    </edge>
    <edge id=":1369614871_w0" function="walkingarea">
        <lane id=":1369614871_w0_0" index="0" allow="pedestrian" speed="1.00" length="9.67" width="4.00" shape="2340.74,1268.83 2341.07,1266.86 2356.21,1270.21 2355.70,1272.14 2352.54,1271.31 2350.21,1270.70 2348.27,1270.23 2346.33,1269.82 2343.96,1269.38"/>
    </edge>
    <edge id=":1369614871_w1" function="walkingarea">
        <lane id=":1369614871_w1_0" index="0" allow="pedestrian" speed="1.00" length="3.34" width="4.00" shape="2354.06,1278.33 2353.55,1280.26 2351.52,1281.75 2349.52,1281.65 2349.71,1280.32 2350.12,1279.30 2350.77,1278.59 2351.64,1278.19 2352.73,1278.10"/>
    </edge>
    <edge id=":1369614871_w2" function="walkingarea">
        <lane id=":1369614871_w2_0" index="0" allow="pedestrian" speed="1.00" length="4.19" width="4.00" shape="2343.13,1281.33 2341.13,1281.23 2339.35,1277.11 2339.68,1275.14 2340.81,1275.49 2341.72,1276.11 2342.40,1277.00 2342.87,1278.17 2343.11,1279.61"/>
    </edge>
    <edge id=":1369615162_0" function="internal">
        <lane id=":1369615162_0_0" index="0" disallow="pedestrian tram rail_urban rail rail_electric rail_fast ship" speed="13.89" length="15.77" shape="2236.23,1883.67 2234.78,1888.11 2233.52,1891.05 2232.02,1893.89 2229.87,1898.06"/>
    </edge>
    <edge id=":1369615162_1" function="internal">
        <lane id=":1369615162_1_0" index="0" disallow="pedestrian tram rail_urban rail rail_electric rail_fast ship" speed="7.93" length="6.54" shape="2236.23,1883.67 2235.37,1889.01 2235.69,1890.10"/>
    </edge>
    <edge id=":1369615162_2" function="internal">
        <lane id=":1369615162_2_0" index="0" disallow="pedestrian tram rail_urban rail rail_electric rail_fast ship" speed="3.66" length="2.55" shape="2236.23,1883.67 2236.47,1885.11 2237.04,1885.81 2237.23,1885.81"/>
    </edge>
    <edge id=":1369615162_9" function="internal">
        <lane id=":1369615162_9_0" index="0" disallow="pedestrian tram rail_urban rail rail_electric rail_fast ship" speed="7.93" length="11.30" shape="2235.69,1890.10 2236.46,1892.68 2239.48,1894.69 2244.45,1895.04"/>
    </edge>
    <edge id=":1369615162_10" function="internal">
        <lane id=":1369615162_10_0" index="0" disallow="pedestrian tram rail_urban rail rail_electric rail_fast ship" speed="3.66" length="2.16" shape="2237.23,1885.81 2237.94,1885.78 2239.17,1885.01"/>
    </edge>
    <edge id=":1369615162_3" function="internal">
        <lane id=":1369615162_3_0" index="0" disallow="pedestrian tram rail_urban rail rail_electric rail_fast ship" speed="6.31" length="10.79" shape="2244.19,1891.85 2241.17,1891.65 2239.32,1890.44 2238.66,1888.22 2239.17,1885.01"/>
    </edge>
    <edge id=":1369615162_4" function="internal">
        <lane id=":1369615162_4_0" index="0" disallow="pedestrian tram rail_urban rail rail_electric rail_fast ship" speed="10.97" length="16.21" shape="2244.19,1891.85 2238.90,1892.60 2234.75,1893.88 2231.74,1895.70 2229.87,1898.06"/>
    </edge>
    <edge id=":1369615162_5" function="internal">
        <lane id=":1369615162_5_0" index="0" disallow="pedestrian tram rail_urban rail rail_electric rail_fast ship" speed="3.65" length="4.67" shape="2244.19,1891.85 2243.05,1892.75 2242.72,1893.58 2243.19,1894.34 2244.45,1895.04"/>
    </edge>
    <edge id=":1369615162_6" function="internal">
        <lane id=":1369615162_6_0" index="0" disallow="pedestrian tram rail_urban rail rail_electric rail_fast ship" speed="9.85" length="8.93" shape="2232.74,1899.47 2234.14,1897.84 2236.56,1896.55 2240.00,1895.62 2240.48,1895.56"/>
    </edge>
    <edge id=":1369615162_7" function="internal">
        <lane id=":1369615162_7_0" index="0" disallow="pedestrian tram rail_urban rail rail_electric rail_fast ship" speed="13.89" length="15.87" shape="2232.74,1899.47 2234.91,1895.29 2236.43,1892.43 2237.71,1889.47 2239.17,1885.01"/>
    </edge>
    <edge id=":1369615162_8" function="internal">
        <lane id=":1369615162_8_0" index="0" disallow="pedestrian tram rail_urban rail rail_electric rail_fast ship" speed="3.65" length="2.34" shape="2232.74,1899.47 2232.56,1898.04 2232.02,1897.33"/>
    </edge>
    <edge id=":1369615162_11" function="internal">
        <lane id=":1369615162_11_0" index="0" disallow="pedestrian tram rail_urban rail rail_electric rail_fast ship" speed="9.85" length="4.00" shape="2240.48,1895.56 2244.45,1895.04"/>
    </edge>
    <edge id=":1369615162_12" function="internal">
        <lane id=":1369615162_12_0" index="0" disallow="pedestrian tram rail_urban rail rail_electric rail_fast ship" speed="3.65" length="2.34" shape="2232.02,1897.33 2231.12,1897.33 2229.87,1898.06"/>
    </edge>
    <edge id=":1369615162_c0" function="crossing" crossingEdges="122612356#1 -122612356#1">
        <lane id=":1369615162_c0_0" index="0" allow="pedestrian" speed="1.00" length="6.42" width="4.00" shape="2240.14,1887.38 2234.13,1885.14"/>
    </edge>
    <edge id=":1369615162_c1" function="crossing" crossingEdges="122612374#0 -122612374#0">
        <lane id=":1369615162_c1_0" index="0" allow="pedestrian" speed="1.00" length="6.40" width="4.00" shape="2242.58,1896.80 2242.06,1890.42"/>
    </edge>
    <edge id=":1369615162_c2" function="crossing" crossingEdges="-122612356#0 122612356#0">
        <lane id=":1369615162_c2_0" index="0" allow="pedestrian" speed="1.00" length="6.40" width="4.00" shape="2229.32,1895.56 2235.06,1898.39"/>
    </edge>
    <edge id=":1369615162_w0" function="walkingarea">
        <lane id=":1369615162_w0_0" index="0" allow="pedestrian" speed="1.00" length="9.86" width="4.00" shape="2228.44,1897.35 2226.65,1896.46 2232.88,1882.30 2234.80,1882.87 2234.83,1883.26 2233.71,1886.36 2232.86,1888.63 2232.03,1890.46 2231.09,1892.25 2229.94,1894.41"/>
    </edge>
    <edge id=":1369615162_w1" function="walkingarea">
        <lane id=":1369615162_w1_0" index="0" allow="pedestrian" speed="1.00" length="3.39" width="4.00" shape="2240.84,1885.51 2240.61,1885.81 2242.52,1886.38 2243.89,1888.26 2244.06,1890.26 2242.60,1890.23 2241.51,1889.90 2240.77,1889.26 2240.40,1888.31 2240.37,1887.04"/>
    </edge>
    <edge id=":1369615162_w2" function="walkingarea">
        <lane id=":1369615162_w2_0" index="0" allow="pedestrian" speed="1.00" length="6.71" width="4.00" shape="2244.58,1896.64 2244.74,1898.63 2235.97,1901.07 2234.18,1900.18 2234.85,1899.30 2235.95,1898.54 2237.47,1897.89 2239.42,1897.36 2241.78,1896.94"/>
    </edge>
    <edge id=":1369615164_0" function="internal">
        <lane id=":1369615164_0_0" index="0" disallow="pedestrian bicycle tram rail_urban rail rail_electric rail_fast ship" speed="7.13" length="14.47" shape="2537.26,2082.65 2536.18,2084.47 2533.74,2084.74 2529.95,2083.44 2524.80,2080.59"/>
    </edge>
    <edge id=":1369615164_1" function="internal">
        <lane id=":1369615164_1_0" index="0" disallow="pedestrian bicycle tram rail_urban rail rail_electric rail_fast ship" speed="8.12" length="14.59" shape="2537.26,2082.65 2537.18,2086.75 2538.35,2089.88 2540.79,2092.03 2544.49,2093.22"/>
    </edge>
    <edge id=":1369615164_2" function="internal">
        <lane id=":1369615164_2_0" index="0" disallow="pedestrian tram rail_urban rail rail_electric rail_fast ship" speed="3.65" length="4.67" shape="2537.26,2082.65 2537.87,2083.96 2538.60,2084.47 2539.45,2084.20 2540.42,2083.14"/>
    </edge>
    <edge id=":1369615164_3" function="internal">
        <lane id=":1369615164_3_0" index="0" disallow="pedestrian bicycle tram rail_urban rail rail_electric rail_fast ship" speed="6.65" length="5.23" shape="2545.00,2090.06 2542.65,2089.29 2541.10,2087.88 2540.87,2087.26"/>
    </edge>
    <edge id=":1369615164_4" function="internal">
        <lane id=":1369615164_4_0" index="0" disallow="pedestrian bicycle tram rail_urban rail rail_electric rail_fast ship" speed="13.89" length="23.08" shape="2545.00,2090.06 2540.69,2089.41 2535.39,2088.37 2529.42,2086.48 2523.11,2083.30"/>
    </edge>
    <edge id=":1369615164_5" function="internal">
        <lane id=":1369615164_5_0" index="0" disallow="pedestrian bicycle tram rail_urban rail rail_electric rail_fast ship" speed="3.65" length="2.34" shape="2545.00,2090.06 2543.69,2090.66 2543.17,2091.38"/>
    </edge>
    <edge id=":1369615164_9" function="internal">
        <lane id=":1369615164_9_0" index="0" disallow="pedestrian bicycle tram rail_urban rail rail_electric rail_fast ship" speed="6.65" length="4.21" shape="2540.87,2087.26 2540.36,2085.83 2540.42,2083.14"/>
    </edge>
    <edge id=":1369615164_10" function="internal">
        <lane id=":1369615164_10_0" index="0" disallow="pedestrian bicycle tram rail_urban rail rail_electric rail_fast ship" speed="3.65" length="2.34" shape="2543.17,2091.38 2543.44,2092.24 2544.49,2093.22"/>
    </edge>
    <edge id=":1369615164_6" function="internal">
        <lane id=":1369615164_6_0" index="0" disallow="pedestrian bicycle tram rail_urban rail rail_electric rail_fast ship" speed="13.89" length="23.26" shape="2521.43,2090.26 2544.49,2093.22"/>
    </edge>
    <edge id=":1369615164_7" function="internal">
        <lane id=":1369615164_7_0" index="0" disallow="pedestrian bicycle tram rail_urban rail rail_electric rail_fast ship" speed="10.07" length="12.77" shape="2521.43,2090.26 2529.20,2090.56 2534.10,2089.64"/>
    </edge>
    <edge id=":1369615164_8" function="internal">
        <lane id=":1369615164_8_0" index="0" disallow="pedestrian bicycle tram rail_urban rail rail_electric rail_fast ship" speed="5.18" length="4.70" shape="2521.79,2087.08 2525.25,2087.23 2526.39,2086.75"/>
    </edge>
    <edge id=":1369615164_11" function="internal">
        <lane id=":1369615164_11_0" index="0" disallow="pedestrian bicycle tram rail_urban rail rail_electric rail_fast ship" speed="10.07" length="9.59" shape="2534.10,2089.64 2534.96,2089.48 2538.70,2087.00 2540.42,2083.14"/>
    </edge>
    <edge id=":1369615164_12" function="internal">
        <lane id=":1369615164_12_0" index="0" disallow="pedestrian bicycle tram rail_urban rail rail_electric rail_fast ship" speed="5.18" length="5.21" shape="2526.39,2086.75 2526.63,2086.65 2525.92,2085.34 2523.11,2083.30"/>
    </edge>
    <edge id=":1369615164_c0" function="crossing" crossingEdges="-122612374#4 122612374#4">
        <lane id=":1369615164_c0_0" index="0" allow="pedestrian" speed="1.00" length="6.40" width="4.00" shape="2541.70,2085.36 2535.37,2084.37"/>
    </edge>
    <edge id=":1369615164_w0" function="walkingarea">
        <lane id=":1369615164_w0_0" index="0" allow="pedestrian" speed="1.00" length="2.24" width="4.00" shape="2533.71,2082.09 2535.68,2082.40 2535.28,2083.09 2534.37,2083.30 2532.95,2083.02 2531.03,2082.24 2528.59,2080.98"/>
    </edge>
    <edge id=":1369615164_w1" function="walkingarea">
        <lane id=":1369615164_w1_0" index="0" allow="pedestrian" speed="1.00" length="2.24" width="4.00" shape="2542.00,2083.39 2543.98,2083.70 2544.07,2088.16 2543.14,2087.63 2542.47,2086.89 2542.06,2085.93 2541.90,2084.77"/>
    </edge>
    <edge id=":1369615209_0" function="internal">
        <lane id=":1369615209_0_0" index="0" disallow="pedestrian tram rail_urban rail rail_electric rail_fast ship" speed="11.58" length="11.12" shape="2462.07,1780.05 2461.39,1783.30 2460.84,1785.64 2459.72,1787.57 2457.28,1789.58"/>
    </edge>
    <edge id=":1369615209_1" function="internal">
        <lane id=":1369615209_1_0" index="0" disallow="pedestrian tram rail_urban rail rail_electric rail_fast ship" speed="7.83" length="15.90" shape="2462.07,1780.05 2461.58,1784.53 2462.73,1787.77 2465.53,1789.77 2469.97,1790.53"/>
    </edge>
    <edge id=":1369615209_2" function="internal">
        <lane id=":1369615209_2_0" index="0" disallow="pedestrian tram rail_urban rail rail_electric rail_fast ship" speed="3.65" length="4.67" shape="2462.07,1780.05 2462.55,1781.41 2463.22,1782.00 2464.10,1781.81 2465.17,1780.85"/>
    </edge>
    <edge id=":1369615209_3" function="internal">
        <lane id=":1369615209_3_0" index="0" disallow="pedestrian tram rail_urban rail rail_electric rail_fast ship" speed="6.30" length="5.55" shape="2470.06,1787.33 2467.31,1786.86 2465.58,1785.62 2465.37,1785.03"/>
    </edge>
    <edge id=":1369615209_4" function="internal">
        <lane id=":1369615209_4_0" index="0" disallow="pedestrian tram rail_urban rail rail_electric rail_fast ship" speed="13.89" length="13.36" shape="2470.06,1787.33 2466.09,1787.11 2463.26,1787.05 2460.64,1787.69 2457.28,1789.58"/>
    </edge>
    <edge id=":1369615209_5" function="internal">
        <lane id=":1369615209_5_0" index="0" disallow="pedestrian tram rail_urban rail rail_electric rail_fast ship" speed="3.65" length="2.34" shape="2470.06,1787.33 2468.84,1788.10 2468.42,1788.89"/>
    </edge>
    <edge id=":1369615209_9" function="internal">
        <lane id=":1369615209_9_0" index="0" disallow="pedestrian tram rail_urban rail rail_electric rail_fast ship" speed="6.30" length="4.28" shape="2465.37,1785.03 2464.87,1783.62 2465.17,1780.85"/>
    </edge>
    <edge id=":1369615209_10" function="internal">
        <lane id=":1369615209_10_0" index="0" disallow="pedestrian tram rail_urban rail rail_electric rail_fast ship" speed="3.65" length="2.34" shape="2468.42,1788.89 2468.80,1789.70 2469.97,1790.53"/>
    </edge>
    <edge id=":1369615209_6" function="internal">
        <lane id=":1369615209_6_0" index="0" disallow="pedestrian tram rail_urban rail rail_electric rail_fast ship" speed="13.54" length="11.39" shape="2459.04,1792.24 2461.92,1790.67 2464.16,1790.19 2466.58,1790.31 2469.97,1790.53"/>
    </edge>
    <edge id=":1369615209_7" function="internal">
        <lane id=":1369615209_7_0" index="0" disallow="pedestrian tram rail_urban rail rail_electric rail_fast ship" speed="12.71" length="5.05" shape="2459.04,1792.24 2462.05,1789.84 2462.70,1788.83"/>
    </edge>
    <edge id=":1369615209_8" function="internal">
        <lane id=":1369615209_8_0" index="0" disallow="pedestrian tram rail_urban rail rail_electric rail_fast ship" speed="3.65" length="2.20" shape="2459.04,1792.24 2459.60,1790.91 2459.51,1790.16"/>
    </edge>
    <edge id=":1369615209_11" function="internal">
        <lane id=":1369615209_11_0" index="0" disallow="pedestrian tram rail_urban rail rail_electric rail_fast ship" speed="12.71" length="8.43" shape="2462.70,1788.83 2463.52,1787.55 2464.29,1784.77 2465.17,1780.85"/>
    </edge>
    <edge id=":1369615209_12" function="internal">
        <lane id=":1369615209_12_0" index="0" disallow="pedestrian tram rail_urban rail rail_electric rail_fast ship" speed="3.65" length="2.47" shape="2459.51,1790.16 2459.49,1790.03 2458.72,1789.58 2457.28,1789.58"/>
    </edge>
    <edge id=":1369615209_c0" function="crossing" crossingEdges="186263433#0 -186263433#0">
        <lane id=":1369615209_c0_0" index="0" allow="pedestrian" speed="1.00" length="6.40" width="4.00" shape="2466.22,1783.18 2460.02,1781.58"/>
    </edge>
    <edge id=":1369615209_c1" function="crossing" crossingEdges="122612374#2 -122612374#2">
        <lane id=":1369615209_c1_0" index="0" allow="pedestrian" speed="1.00" length="6.40" width="4.00" shape="2467.93,1792.08 2468.10,1785.68"/>
    </edge>
    <edge id=":1369615209_c2" function="crossing" crossingEdges="-122612374#1 122612374#1">
        <lane id=":1369615209_c2_0" index="0" allow="pedestrian" speed="1.00" length="6.40" width="4.00" shape="2458.06,1787.14 2461.60,1792.47"/>
    </edge>
    <edge id=":1369615209_w0" function="walkingarea">
        <lane id=":1369615209_w0_0" index="0" allow="pedestrian" speed="1.00" length="5.71" width="4.00" shape="2456.39,1788.24 2455.29,1786.58 2458.59,1779.15 2460.52,1779.65 2460.08,1781.70 2459.81,1783.34 2459.50,1784.69 2458.97,1785.87 2458.00,1787.01"/>
    </edge>
    <edge id=":1369615209_w1" function="walkingarea">
        <lane id=":1369615209_w1_0" index="0" allow="pedestrian" speed="1.00" length="3.34" width="4.00" shape="2466.72,1781.25 2468.66,1781.74 2470.16,1783.74 2470.10,1785.73 2468.76,1785.58 2467.72,1785.18 2467.00,1784.55 2466.60,1783.69 2466.50,1782.58"/>
    </edge>
    <edge id=":1369615209_w2" function="walkingarea">
        <lane id=":1369615209_w2_0" index="0" allow="pedestrian" speed="1.00" length="6.08" width="4.00" shape="2469.93,1792.13 2469.88,1794.13 2461.03,1795.25 2459.93,1793.58 2461.78,1792.49 2463.27,1791.93 2464.61,1791.76 2466.03,1791.83 2467.73,1792.00"/>
    </edge>
    <edge id=":1464088413_0" function="internal">
        <lane id=":1464088413_0_0" index="0" disallow="pedestrian bicycle tram rail_urban rail rail_electric rail_fast ship" speed="10.46" length="6.58" shape="1449.26,1268.25 1449.32,1270.41 1449.67,1271.88 1450.43,1273.22 1451.72,1274.99"/>
        <lane id=":1464088413_0_1" index="1" disallow="pedestrian bicycle tram rail_urban rail rail_electric rail_fast ship" speed="9.28" length="6.58" shape="1452.46,1268.30 1452.54,1269.97 1452.88,1271.09 1453.54,1272.10 1454.58,1273.47"/>
    </edge>
    <edge id=":1464088413_2" function="internal">
        <lane id=":1464088413_2_0" index="0" disallow="pedestrian bicycle tram rail_urban rail rail_electric rail_fast ship" speed="7.22" length="7.47" shape="1445.09,1272.59 1447.11,1272.44 1448.88,1272.79 1450.42,1273.64 1451.72,1274.99"/>
    </edge>
    <edge id=":1464088413_3" function="internal">
        <lane id=":1464088413_3_0" index="0" disallow="pedestrian bicycle tram rail_urban rail rail_electric rail_fast ship" speed="8.82" length="11.50" shape="1444.49,1269.45 1447.47,1269.26 1450.14,1269.86 1452.51,1271.27 1454.58,1273.47"/>
    </edge>
    <edge id=":1464088459_0" function="internal">
        <lane id=":1464088459_0_0" index="0" disallow="pedestrian bicycle tram rail_urban rail rail_electric rail_fast ship" speed="5.97" length="7.52" shape="1539.51,1344.62 1538.06,1345.37 1536.52,1345.29 1534.89,1344.36 1533.16,1342.60"/>
    </edge>
    <edge id=":1464088459_1" function="internal">
        <lane id=":1464088459_1_0" index="0" disallow="pedestrian tram rail_urban rail rail_electric rail_fast ship" speed="3.65" length="4.67" shape="1539.51,1344.62 1539.10,1346.00 1539.31,1346.87 1540.13,1347.23 1541.56,1347.07"/>
    </edge>
    <edge id=":1464088459_2" function="internal">
        <lane id=":1464088459_2_0" index="0" disallow="pedestrian bicycle tram rail_urban rail rail_electric rail_fast ship" speed="6.00" length="7.54" shape="1542.35,1353.72 1540.95,1351.69 1540.35,1349.91 1540.56,1348.37 1541.56,1347.07"/>
    </edge>
    <edge id=":1464088459_3" function="internal">
        <lane id=":1464088459_3_0" index="0" disallow="pedestrian bicycle tram rail_urban rail rail_electric rail_fast ship" speed="13.89" length="14.45" shape="1542.35,1353.72 1533.16,1342.60"/>