<?xml version="1.0" encoding="UTF-8"?>
<!-- generated on 2020-11-25 19:52:12.369615 by osmWebWizard.py v1_7_0+0000-714814baed
  options: 
-->
<routes xmlns:xsi="http://www.w3.org/2001/XMLSchema-instance" xsi:noNamespaceSchemaLocation="http://sumo.dlr.de/xsd/routes_file.xsd">
    <vType id="ped_pedestrian" vClass="pedestrian"/>
    <person id="ped0" depart="0.00" type="ped_pedestrian">
        <walk from="171867136#1" to="-133755118#0"/>
    </person>
    <person id="ped1" depart="4.38" type="ped_pedestrian">
        <walk from="-288926324#3" to="-186258462"/>
    </person>
    <person id="ped2" depart="8.77" type="ped_pedestrian">
        <walk from="288926324#0" to="186254733#0"/>
    </person>
    <person id="ped3" depart="13.15" type="ped_pedestrian">
        <walk from="706734275#1" to="-171865792#0"/>
    </person>
    <person id="ped4" depart="17.53" type="ped_pedestrian">
        <walk from="-800610495#0" to="-133755118#1"/>
    </person>
    <person id="ped5" depart="21.91" type="ped_pedestrian">
        <walk from="-186258453" to="133755118#3"/>
    </person>
    <person id="ped6" depart="26.30" type="ped_pedestrian">
        <walk from="-133755118#0" to="-171870086#1"/>
    </person>
    <person id="ped7" depart="30.68" type="ped_pedestrian">
        <walk from="171867136#4" to="133755127#2"/>
    </person>
    <person id="ped8" depart="35.06" type="ped_pedestrian">
        <walk from="-186258462" to="171865797#5"/>
    </person>
    <person id="ped9" depart="39.45" type="ped_pedestrian">
        <walk from="306475948" to="-122612356#1"/>
    </person>
    <person id="ped10" depart="43.83" type="ped_pedestrian">
        <walk from="306475944" to="186258773#1"/>
    </person>
    <person id="ped11" depart="48.21" type="ped_pedestrian">
        <walk from="-374529123" to="-171867131"/>
    </person>
    <person id="ped12" depart="52.59" type="ped_pedestrian">
        <walk from="800669882" to="-306475950"/>
    </person>
    <person id="ped13" depart="56.98" type="ped_pedestrian">
        <walk from="-171865792#2" to="-171865797#0"/>
    </person>
    <person id="ped14" depart="61.36" type="ped_pedestrian">
        <walk from="609872584" to="171867126"/>
    </person>
    <person id="ped15" depart="65.74" type="ped_pedestrian">
        <walk from="306475948" to="236471193#1"/>
    </person>
    <person id="ped16" depart="70.13" type="ped_pedestrian">
        <walk from="133755126#9" to="804207591#0"/>
    </person>
    <person id="ped17" depart="74.51" type="ped_pedestrian">
        <walk from="-706734273" to="158486424#1"/>
    </person>
    <person id="ped18" depart="78.89" type="ped_pedestrian">
        <walk from="374530997#1" to="171867130#1"/>
    </person>
    <person id="ped19" depart="83.27" type="ped_pedestrian">
        <walk from="706173404#2" to="171865797#2"/>
    </person>
    <person id="ped20" depart="87.66" type="ped_pedestrian">
        <walk from="186263433#0" to="-133755126#3"/>
    </person>
    <person id="ped21" depart="92.04" type="ped_pedestrian">
        <walk from="-186258773#1" to="-290646812#1"/>
    </person>
    <person id="ped22" depart="96.42" type="ped_pedestrian">
        <walk from="-158486424#1" to="-186259469"/>
    </person>
    <person id="ped23" depart="100.81" type="ped_pedestrian">
        <walk from="-171865797#1" to="-288926324#4"/>
    </person>
    <person id="ped24" depart="105.19" type="ped_pedestrian">
        <walk from="171867136#0" to="-706173404#2"/>
    </person>
    <person id="ped25" depart="109.57" type="ped_pedestrian">
        <walk from="-706318012" to="-186254733#0"/>
    </person>
    <person id="ped26" depart="113.95" type="ped_pedestrian">
        <walk from="-288926324#1" to="800610496"/>
    </person>
    <person id="ped27" depart="118.34" type="ped_pedestrian">
        <walk from="171867136#4" to="171867128"/>
    </person>
    <person id="ped28" depart="122.72" type="ped_pedestrian">
        <walk from="-171867136#2" to="236471193#1"/>
    </person>
    <person id="ped29" depart="127.10" type="ped_pedestrian">
        <walk from="-171867136#0" to="-706734273"/>
    </person>
    <person id="ped30" depart="131.49" type="ped_pedestrian">
        <walk from="804217356#6" to="171867136#1"/>
    </person>
    <person id="ped31" depart="135.87" type="ped_pedestrian">
        <walk from="171865779" to="186254736"/>
    </person>
    <person id="ped32" depart="140.25" type="ped_pedestrian">
        <walk from="543879349#0" to="306475941#0"/>
    </person>
    <person id="ped33" depart="144.64" type="ped_pedestrian">
        <walk from="-186258773#1" to="-133755118#2"/>
    </person>
    <person id="ped34" depart="149.02" type="ped_pedestrian">
        <walk from="-306475942#2" to="-288926324#1"/>
    </person>
    <person id="ped35" depart="153.40" type="ped_pedestrian">
        <walk from="-186254733#1" to="800610498#1"/>
    </person>
    <person id="ped36" depart="157.78" type="ped_pedestrian">
        <walk from="706734268" to="-306475942#2"/>
    </person>
    <person id="ped37" depart="162.17" type="ped_pedestrian">
        <walk from="171870081" to="-706734276#0"/>
    </person>
    <person id="ped38" depart="166.55" type="ped_pedestrian">
        <walk from="720452476" to="-800715314"/>
    </person>
    <person id="ped39" depart="170.93" type="ped_pedestrian">
        <walk from="-288926324#0" to="-186263438#0"/>
    </person>
    <person id="ped40" depart="175.32" type="ped_pedestrian">
        <walk from="171865792#0" to="-246989090"/>
    </person>
    <person id="ped41" depart="179.70" type="ped_pedestrian">
        <walk from="171865797#4" to="706734275#3"/>
    </person>
    <person id="ped42" depart="184.08" type="ped_pedestrian">
        <walk from="-706734276#1" to="-186258453"/>
    </person>
    <person id="ped43" depart="188.46" type="ped_pedestrian">
        <walk from="817230302" to="133755126#0"/>
    </person>
    <person id="ped44" depart="192.85" type="ped_pedestrian">
        <walk from="-171865792#2" to="-133755126#4"/>
    </person>
    <person id="ped45" depart="197.23" type="ped_pedestrian">
        <walk from="-171865797#3" to="171867131"/>
    </person>
    <person id="ped46" depart="201.61" type="ped_pedestrian">
        <walk from="306475942#2" to="-800610495#0"/>
    </person>
    <person id="ped47" depart="206.00" type="ped_pedestrian">
        <walk from="-133755127#0" to="-706734275#0"/>
    </person>
    <person id="ped48" depart="210.38" type="ped_pedestrian">
        <walk from="804217356#9" to="133755126#7"/>
    </person>
    <person id="ped49" depart="214.76" type="ped_pedestrian">
        <walk from="804207591#0" to="706173404#2"/>
    </person>
    <person id="ped50" depart="219.14" type="ped_pedestrian">
        <walk from="-122612374#1" to="236471190"/>
    </person>
    <person id="ped51" depart="223.53" type="ped_pedestrian">
        <walk from="186254733#1" to="133755127#0"/>
    </person>
    <person id="ped52" depart="227.91" type="ped_pedestrian">
        <walk from="-288926324#1" to="171867136#2"/>
    </person>
    <person id="ped53" depart="232.29" type="ped_pedestrian">
        <walk from="-171865797#4" to="-800610498#0"/>
    </person>
    <person id="ped54" depart="236.68" type="ped_pedestrian">
        <walk from="-800669882" to="800669878"/>
    </person>
    <person id="ped55" depart="241.06" type="ped_pedestrian">
        <walk from="706734268" to="-288926324#0"/>
    </person>
    <person id="ped56" depart="245.44" type="ped_pedestrian">
        <walk from="133755118#2" to="-171867136#4"/>
    </person>
    <person id="ped57" depart="249.82" type="ped_pedestrian">
        <walk from="706734276#4" to="706318012"/>
    </person>
    <person id="ped58" depart="254.21" type="ped_pedestrian">
        <walk from="-306475941#0" to="171867136#1"/>
    </person>
    <person id="ped59" depart="258.59" type="ped_pedestrian">
        <walk from="171867128" to="-171867130#3"/>
    </person>
    <person id="ped60" depart="262.97" type="ped_pedestrian">
        <walk from="290646812#0" to="133755127#0"/>
    </person>
    <person id="ped61" depart="267.36" type="ped_pedestrian">
        <walk from="306475941#1" to="133755126#8"/>
    </person>
    <person id="ped62" depart="271.74" type="ped_pedestrian">
        <walk from="-122612356#0" to="-306475943#2"/>
    </person>
    <person id="ped63" depart="276.12" type="ped_pedestrian">
        <walk from="-122612374#3" to="800610495#0"/>
    </person>
    <person id="ped64" depart="280.50" type="ped_pedestrian">
        <walk from="706734269" to="374531000"/>
    </person>
    <person id="ped65" depart="284.89" type="ped_pedestrian">
        <walk from="-306475942#0" to="-133755126#8"/>
    </person>
    <person id="ped66" depart="289.27" type="ped_pedestrian">
        <walk from="706734269" to="800669862"/>
    </person>
    <person id="ped67" depart="293.65" type="ped_pedestrian">
        <walk from="-171865779" to="122612374#2"/>
    </person>
    <person id="ped68" depart="298.04" type="ped_pedestrian">
        <walk from="-133755127#1" to="290646812#0"/>
    </person>
    <person id="ped69" depart="302.42" type="ped_pedestrian">
        <walk from="290646812#1" to="-171865800"/>
    </person>
    <person id="ped70" depart="306.80" type="ped_pedestrian">
        <walk from="122612356#1" to="158486424#0"/>
    </person>
    <person id="ped71" depart="311.18" type="ped_pedestrian">
        <walk from="-288926324#0" to="706318012"/>
    </person>
    <person id="ped72" depart="315.57" type="ped_pedestrian">
        <walk from="-800610495#0" to="-186254733#1"/>
    </person>
    <person id="ped73" depart="319.95" type="ped_pedestrian">
        <walk from="133755127#0" to="236471193#1"/>
    </person>
    <person id="ped74" depart="324.33" type="ped_pedestrian">
        <walk from="-171902831#0" to="-306475942#1"/>
    </person>
    <person id="ped75" depart="328.72" type="ped_pedestrian">
        <walk from="804217356#9" to="171867136#4"/>
    </person>
    <person id="ped76" depart="333.10" type="ped_pedestrian">
        <walk from="-800610498#1" to="133755126#3"/>
    </person>
    <person id="ped77" depart="337.48" type="ped_pedestrian">
        <walk from="-171865797#7" to="-186258773#0"/>
    </person>
    <person id="ped78" depart="341.86" type="ped_pedestrian">
        <walk from="-364433566" to="171865797#5"/>
    </person>
    <person id="ped79" depart="346.25" type="ped_pedestrian">
        <walk from="-186259469" to="-186258462"/>
    </person>
    <person id="ped80" depart="350.63" type="ped_pedestrian">
        <walk from="-133755127#2" to="171867135"/>
    </person>
    <person id="ped81" depart="355.01" type="ped_pedestrian">
        <walk from="-186258773#1" to="706734276#2"/>
    </person>
    <person id="ped82" depart="359.40" type="ped_pedestrian">
        <walk from="706173404#1" to="-133755127#2"/>
    </person>
    <person id="ped83" depart="363.78" type="ped_pedestrian">
        <walk from="-186263433#1" to="171870086#1"/>
    </person>
    <person id="ped84" depart="368.16" type="ped_pedestrian">
        <walk from="-186254736" to="-171867126"/>
    </person>
    <person id="ped85" depart="372.54" type="ped_pedestrian">
        <walk from="800610496" to="171865797#0"/>
    </person>
    <person id="ped86" depart="376.93" type="ped_pedestrian">
        <walk from="122612356#0" to="306475942#0"/>
    </person>
    <person id="ped87" depart="381.31" type="ped_pedestrian">
        <walk from="306475948" to="-171870085"/>
    </person>
    <person id="ped88" depart="385.69" type="ped_pedestrian">
        <walk from="-171865797#0" to="-800610497"/>
    </person>
    <person id="ped89" depart="390.08" type="ped_pedestrian">
        <walk from="-800610495#1" to="-817230302"/>
    </person>
    <person id="ped90" depart="394.46" type="ped_pedestrian">
        <walk from="236471193#1" to="171902831#1"/>
    </person>
    <person id="ped91" depart="398.84" type="ped_pedestrian">
        <walk from="804217356#4" to="-171865797#0"/>
    </person>
    <person id="ped92" depart="403.22" type="ped_pedestrian">
        <walk from="-706734276#2" to="-364433566"/>
    </person>
    <person id="ped93" depart="407.61" type="ped_pedestrian">
        <walk from="706173404#2" to="-186263438#1"/>
    </person>
    <person id="ped94" depart="411.99" type="ped_pedestrian">
        <walk from="-171870085" to="-800669876"/>
    </person>
    <person id="ped95" depart="416.37" type="ped_pedestrian">
        <walk from="-800610495#0" to="-288926324#4"/>
    </person>
    <person id="ped96" depart="420.76" type="ped_pedestrian">
        <walk from="-186263438#1" to="800384379"/>
    </person>
    <person id="ped97" depart="425.14" type="ped_pedestrian">
        <walk from="-800610499" to="706173404#2"/>
    </person>
    <person id="ped98" depart="429.52" type="ped_pedestrian">
        <walk from="158486424#1" to="-133755126#5"/>
    </person>
    <person id="ped99" depart="433.91" type="ped_pedestrian">
        <walk from="817230302" to="469189654#0"/>
    </person>
    <person id="ped100" depart="438.29" type="ped_pedestrian">
        <walk from="804207582" to="800384380"/>
    </person>
    <person id="ped101" depart="442.67" type="ped_pedestrian">
        <walk from="609872584" to="-171867136#0"/>
    </person>
    <person id="ped102" depart="447.05" type="ped_pedestrian">
        <walk from="122612374#2" to="-186254736"/>
    </person>
    <person id="ped103" depart="451.44" type="ped_pedestrian">
        <walk from="-706734276#2" to="-133755126#8"/>
    </person>
    <person id="ped104" depart="455.82" type="ped_pedestrian">
        <walk from="-706734273" to="804217356#4"/>
    </person>
    <person id="ped105" depart="460.20" type="ped_pedestrian">
        <walk from="-288926324#0" to="306475942#0"/>
    </person>
    <person id="ped106" depart="464.59" type="ped_pedestrian">
        <walk from="-800669882" to="-800610495#0"/>
    </person>
    <person id="ped107" depart="468.97" type="ped_pedestrian">
        <walk from="800669882" to="804217356#9"/>
    </person>
    <person id="ped108" depart="473.35" type="ped_pedestrian">
        <walk from="158486424#2" to="186263438#1"/>
    </person>
    <person id="ped109" depart="477.73" type="ped_pedestrian">
        <walk from="-171867131" to="-306475941#0"/>
    </person>
    <person id="ped110" depart="482.12" type="ped_pedestrian">
        <walk from="804207582" to="171865797#2"/>
    </person>
    <person id="ped111" depart="486.50" type="ped_pedestrian">
        <walk from="133755127#1" to="288926324#4"/>
    </person>
    <person id="ped112" depart="490.88" type="ped_pedestrian">
        <walk from="-133755126#8" to="171865797#4"/>
    </person>
    <person id="ped113" depart="495.27" type="ped_pedestrian">
        <walk from="133755118#2" to="613492737"/>
    </person>
    <person id="ped114" depart="499.65" type="ped_pedestrian">
        <walk from="-171867133" to="800715314"/>
    </person>
    <person id="ped115" depart="504.03" type="ped_pedestrian">
        <walk from="-158486424#2" to="-171870081"/>
    </person>
    <person id="ped116" depart="508.41" type="ped_pedestrian">
        <walk from="171865797#7" to="171902831#1"/>
    </person>
    <person id="ped117" depart="512.80" type="ped_pedestrian">
        <walk from="-186263433#0" to="-171865797#6"/>
    </person>
    <person id="ped118" depart="517.18" type="ped_pedestrian">
        <walk from="706734275#1" to="-186263438#0"/>
    </person>
    <person id="ped119" depart="521.56" type="ped_pedestrian">
        <walk from="171865797#7" to="171867130#1"/>
    </person>
    <person id="ped120" depart="525.95" type="ped_pedestrian">
        <walk from="-800384380" to="171865797#4"/>
    </person>
    <person id="ped121" depart="530.33" type="ped_pedestrian">
        <walk from="133755126#4" to="800610496"/>
    </person>
    <person id="ped122" depart="534.71" type="ped_pedestrian">
        <walk from="-171902831#1" to="186263438#0"/>
    </person>
    <person id="ped123" depart="539.09" type="ped_pedestrian">
        <walk from="-186263433#1" to="-706734276#0"/>
    </person>
    <person id="ped124" depart="543.48" type="ped_pedestrian">
        <walk from="171902831#0" to="-306475941#0"/>
    </person>
    <person id="ped125" depart="547.86" type="ped_pedestrian">
        <walk from="-306475942#2" to="288926324#5"/>
    </person>
    <person id="ped126" depart="552.24" type="ped_pedestrian">
        <walk from="-133755127#2" to="-800715314"/>
    </person>
    <person id="ped127" depart="556.63" type="ped_pedestrian">
        <walk from="817230302" to="804217356#9"/>
    </person>
    <person id="ped128" depart="561.01" type="ped_pedestrian">
        <walk from="-133755127#2" to="-186254733#1"/>
    </person>
    <person id="ped129" depart="565.39" type="ped_pedestrian">
        <walk from="-288926324#0" to="800610495#1"/>
    </person>
    <person id="ped130" depart="569.77" type="ped_pedestrian">
        <walk from="706734271" to="706734269"/>
    </person>
    <person id="ped131" depart="574.16" type="ped_pedestrian">
        <walk from="-706318011" to="-171867133"/>
    </person>
    <person id="ped132" depart="578.54" type="ped_pedestrian">
        <walk from="469189654#0" to="186263433#0"/>
    </person>
    <person id="ped133" depart="582.92" type="ped_pedestrian">
        <walk from="171867129" to="804217356#6"/>
    </person>
    <person id="ped134" depart="587.31" type="ped_pedestrian">
        <walk from="171870081" to="-122612374#0"/>
    </person>
    <person id="ped135" depart="591.69" type="ped_pedestrian">
        <walk from="374529115" to="-306475941#0"/>
    </person>
    <person id="ped136" depart="596.07" type="ped_pedestrian">
        <walk from="171870086#0" to="800610498#0"/>
    </person>
    <person id="ped137" depart="600.45" type="ped_pedestrian">
        <walk from="-171867128" to="-171865797#5"/>
    </person>
    <person id="ped138" depart="604.84" type="ped_pedestrian">
        <walk from="-171865797#3" to="158486424#1"/>
    </person>
    <person id="ped139" depart="609.22" type="ped_pedestrian">
        <walk from="-288926324#2" to="171867126"/>
    </person>
    <person id="ped140" depart="613.60" type="ped_pedestrian">
        <walk from="186263438#1" to="-171902831#1"/>
    </person>
    <person id="ped141" depart="617.99" type="ped_pedestrian">
        <walk from="171867136#0" to="-288926324#0"/>
    </person>
    <person id="ped142" depart="622.37" type="ped_pedestrian">
        <walk from="122612374#3" to="706734276#2"/>
    </person>
    <person id="ped143" depart="626.75" type="ped_pedestrian">
        <walk from="543879349#1" to="-171865792#2"/>
    </person>
    <person id="ped144" depart="631.13" type="ped_pedestrian">
        <walk from="-800610495#1" to="-288926324#4"/>
    </person>
    <person id="ped145" depart="635.52" type="ped_pedestrian">
        <walk from="-122612356#1" to="306475940#1"/>
    </person>
    <person id="ped146" depart="639.90" type="ped_pedestrian">
        <walk from="171867136#1" to="-246989090"/>
    </person>
    <person id="ped147" depart="644.28" type="ped_pedestrian">
        <walk from="288926324#2" to="158486424#1"/>
    </person>
    <person id="ped148" depart="648.67" type="ped_pedestrian">
        <walk from="-800610496" to="-122612374#0"/>
    </person>
    <person id="ped149" depart="653.05" type="ped_pedestrian">
        <walk from="-158486424#0" to="706734271"/>
    </person>
    <person id="ped150" depart="657.43" type="ped_pedestrian">
        <walk from="706734276#2" to="133755127#2"/>
    </person>
    <person id="ped151" depart="661.81" type="ped_pedestrian">
        <walk from="469189654#0" to="171865797#3"/>
    </person>
    <person id="ped152" depart="666.20" type="ped_pedestrian">
        <walk from="-171867130#2" to="-171865800"/>
    </person>
    <person id="ped153" depart="670.58" type="ped_pedestrian">
        <walk from="-306475942#0" to="706734275#3"/>
    </person>
    <person id="ped154" depart="674.96" type="ped_pedestrian">
        <walk from="306475943#0" to="706173404#2"/>
    </person>
    <person id="ped155" depart="679.35" type="ped_pedestrian">
        <walk from="706734275#3" to="-186254733#1"/>
    </person>
    <person id="ped156" depart="683.73" type="ped_pedestrian">
        <walk from="-186263438#1" to="-171865797#1"/>
    </person>
    <person id="ped157" depart="688.11" type="ped_pedestrian">
        <walk from="306475941#2" to="706734273"/>
    </person>
    <person id="ped158" depart="692.50" type="ped_pedestrian">
        <walk from="-706734276#3" to="171867130#2"/>
    </person>
    <person id="ped159" depart="696.88" type="ped_pedestrian">
        <walk from="-171867131" to="800610495#0"/>
    </person>
    <person id="ped160" depart="701.26" type="ped_pedestrian">
        <walk from="706173406" to="804207591#4"/>
    </person>
    <person id="ped161" depart="705.64" type="ped_pedestrian">
        <walk from="306475950" to="706734271"/>
    </person>
    <person id="ped162" depart="710.03" type="ped_pedestrian">
        <walk from="-133755118#0" to="288926324#0"/>
    </person>
    <person id="ped163" depart="714.41" type="ped_pedestrian">
        <walk from="-306475948" to="800610495#1"/>
    </person>
    <person id="ped164" depart="718.79" type="ped_pedestrian">
        <walk from="306475943#2" to="706173406"/>
    </person>
    <person id="ped165" depart="723.18" type="ped_pedestrian">
        <walk from="306475950" to="-288926324#1"/>
    </person>
    <person id="ped166" depart="727.56" type="ped_pedestrian">
        <walk from="306475942#1" to="-171865797#3"/>
    </person>
    <person id="ped167" depart="731.94" type="ped_pedestrian">
        <walk from="706318012" to="706173404#1"/>
    </person>
    <person id="ped168" depart="736.32" type="ped_pedestrian">
        <walk from="-186258462" to="364433566"/>
    </person>
    <person id="ped169" depart="740.71" type="ped_pedestrian">
        <walk from="-803758025#0" to="-306475941#2"/>
    </person>
    <person id="ped170" depart="745.09" type="ped_pedestrian">
        <walk from="306475943#0" to="-186258773#1"/>
    </person>
    <person id="ped171" depart="749.47" type="ped_pedestrian">
        <walk from="-133755118#0" to="-171870085"/>
    </person>
    <person id="ped172" depart="753.86" type="ped_pedestrian">
        <walk from="-306475944" to="706173406"/>
    </person>
    <person id="ped173" depart="758.24" type="ped_pedestrian">
        <walk from="804207582" to="-288926324#4"/>
    </person>
    <person id="ped174" depart="762.62" type="ped_pedestrian">
        <walk from="171867136#2" to="-706734276#1"/>
    </person>
    <person id="ped175" depart="767.00" type="ped_pedestrian">
        <walk from="804217356#3" to="133755126#9"/>
    </person>
    <person id="ped176" depart="771.39" type="ped_pedestrian">
        <walk from="800610498#0" to="-171865797#5"/>
    </person>
    <person id="ped177" depart="775.77" type="ped_pedestrian">
        <walk from="804207591#0" to="-171867136#4"/>
    </person>
    <person id="ped178" depart="780.15" type="ped_pedestrian">
        <walk from="800715314" to="-288926324#0"/>
    </person>
    <person id="ped179" depart="784.54" type="ped_pedestrian">
        <walk from="-171865797#3" to="-800610498#0"/>
    </person>
    <person id="ped180" depart="788.92" type="ped_pedestrian">
        <walk from="236471193#1" to="-306475942#2"/>
    </person>
    <person id="ped181" depart="793.30" type="ped_pedestrian">
        <walk from="171867126" to="133755126#1"/>
    </person>
    <person id="ped182" depart="797.68" type="ped_pedestrian">
        <walk from="-706734275#1" to="171865797#1"/>
    </person>
    <person id="ped183" depart="802.07" type="ped_pedestrian">
        <walk from="-236471193#0" to="186263433#1"/>
    </person>
    <person id="ped184" depart="806.45" type="ped_pedestrian">
        <walk from="-122612356#0" to="800384380"/>
    </person>
    <person id="ped185" depart="810.83" type="ped_pedestrian">
        <walk from="133755127#0" to="186263438#1"/>
    </person>
    <person id="ped186" depart="815.22" type="ped_pedestrian">
        <walk from="288926324#2" to="171902831#0"/>
    </person>
    <person id="ped187" depart="819.60" type="ped_pedestrian">
        <walk from="-706173404#2" to="-133755127#1"/>
    </person>
    <person id="ped188" depart="823.98" type="ped_pedestrian">
        <walk from="171870086#0" to="-306475948"/>
    </person>
    <person id="ped189" depart="828.36" type="ped_pedestrian">
        <walk from="-306475942#2" to="609872584"/>
    </person>
    <person id="ped190" depart="832.75" type="ped_pedestrian">
        <walk from="186263438#1" to="-306475941#1"/>
    </person>
    <person id="ped191" depart="837.13" type="ped_pedestrian">
        <walk from="-306475942#0" to="-720452476"/>
    </person>
    <person id="ped192" depart="841.51" type="ped_pedestrian">
        <walk from="-706734276#2" to="-306475940#1"/>
    </person>
    <person id="ped193" depart="845.90" type="ped_pedestrian">
        <walk from="-171865800" to="-800610495#0"/>
    </person>
    <person id="ped194" depart="850.28" type="ped_pedestrian">
        <walk from="800610498#1" to="186254733#0"/>
    </person>
    <person id="ped195" depart="854.66" type="ped_pedestrian">
        <walk from="706734276#1" to="171867130#0"/>
    </person>
    <person id="ped196" depart="859.04" type="ped_pedestrian">
        <walk from="-122612356#0" to="-290646812#1"/>
    </person>
    <person id="ped197" depart="863.43" type="ped_pedestrian">
        <walk from="-800610496" to="171865797#2"/>
    </person>
    <person id="ped198" depart="867.81" type="ped_pedestrian">
        <walk from="171870081" to="-804207582"/>
    </person>
    <person id="ped199" depart="872.19" type="ped_pedestrian">
        <walk from="-800610499" to="-186254736"/>
    </person>
    <person id="ped200" depart="876.58" type="ped_pedestrian">
        <walk from="122612356#0" to="706734276#1"/>
    </person>
    <person id="ped201" depart="880.96" type="ped_pedestrian">
        <walk from="306475943#0" to="-171867136#1"/>
    </person>
    <person id="ped202" depart="885.34" type="ped_pedestrian">
        <walk from="-171865779" to="133755126#2"/>
    </person>
    <person id="ped203" depart="889.72" type="ped_pedestrian">
        <walk from="171867135" to="-306475950"/>
    </person>
    <person id="ped204" depart="894.11" type="ped_pedestrian">
        <walk from="374529115" to="288926324#5"/>
    </person>
    <person id="ped205" depart="898.49" type="ped_pedestrian">
        <walk from="171902831#0" to="-186258773#0"/>
    </person>
    <person id="ped206" depart="902.87" type="ped_pedestrian">
        <walk from="-171870086#1" to="-133755118#0"/>
    </person>
    <person id="ped207" depart="907.26" type="ped_pedestrian">
        <walk from="-186263438#0" to="122612356#1"/>
    </person>
    <person id="ped208" depart="911.64" type="ped_pedestrian">
        <walk from="609872584" to="-133755127#2"/>
    </person>
    <person id="ped209" depart="916.02" type="ped_pedestrian">
        <walk from="-800384379" to="171867131"/>
    </person>
    <person id="ped210" depart="920.40" type="ped_pedestrian">
        <walk from="-171870086#0" to="186258773#0"/>
    </person>
    <person id="ped211" depart="924.79" type="ped_pedestrian">
        <walk from="133755118#0" to="-186263438#0"/>
    </person>
    <person id="ped212" depart="929.17" type="ped_pedestrian">
        <walk from="171870081" to="-122612356#1"/>
    </person>
    <person id="ped213" depart="933.55" type="ped_pedestrian">
        <walk from="288926324#5" to="306475940#1"/>
    </person>
    <person id="ped214" depart="937.94" type="ped_pedestrian">
        <walk from="-171865797#2" to="-800610495#1"/>
    </person>
    <person id="ped215" depart="942.32" type="ped_pedestrian">
        <walk from="-171867136#3" to="800669882"/>
    </person>
    <person id="ped216" depart="946.70" type="ped_pedestrian">
        <walk from="133755126#3" to="-133755126#5"/>
    </person>
    <person id="ped217" depart="951.08" type="ped_pedestrian">
        <walk from="-186263438#1" to="609872584"/>
    </person>
    <person id="ped218" depart="955.47" type="ped_pedestrian">
        <walk from="-800669882" to="306475943#2"/>
    </person>
    <person id="ped219" depart="959.85" type="ped_pedestrian">
        <walk from="171870086#1" to="804217356#6"/>
    </person>
    <person id="ped220" depart="964.23" type="ped_pedestrian">
        <walk from="171865797#7" to="800669876"/>
    </person>
    <person id="ped221" depart="968.62" type="ped_pedestrian">
        <walk from="706734275#1" to="171867129"/>
    </person>
    <person id="ped222" depart="973.00" type="ped_pedestrian">
        <walk from="186263438#1" to="133755118#3"/>
    </person>
    <person id="ped223" depart="977.38" type="ped_pedestrian">
        <walk from="374531000" to="158486424#0"/>
    </person>
    <person id="ped224" depart="981.77" type="ped_pedestrian">
        <walk from="706734275#3" to="288926324#3"/>
    </person>
    <person id="ped225" depart="986.15" type="ped_pedestrian">
        <walk from="122612356#1" to="-236471193#1"/>
    </person>
    <person id="ped226" depart="990.53" type="ped_pedestrian">
        <walk from="-186263438#1" to="171867136#1"/>
    </person>
    <person id="ped227" depart="994.91" type="ped_pedestrian">
        <walk from="290646812#1" to="133755126#4"/>
    </person>
    <person id="ped228" depart="999.30" type="ped_pedestrian">
        <walk from="171867131" to="-288926324#3"/>
    </person>
    <person id="ped229" depart="1003.68" type="ped_pedestrian">
        <walk from="-158486424#1" to="-290646812#0"/>
    </person>
    <person id="ped230" depart="1008.06" type="ped_pedestrian">
        <walk from="-288926324#2" to="-306475943#0"/>
    </person>