<?xml version="1.0" encoding="UTF-8"?>

<!-- generated on Wed Nov 25 19:52:11 2020 by Eclipse SUMO polyconvert Version 1.7.0
<configuration xmlns:xsi="http://www.w3.org/2001/XMLSchema-instance" xsi:noNamespaceSchemaLocation="http://sumo.dlr.de/xsd/polyconvertConfiguration.xsd">

    <input>
        <net-file value="osm.net.xml"/>
        <osm-files value="osm_bbox.osm.xml"/>
        <osm.keep-full-type value="true"/>
        <type-file value="/opt/sumo-1.7.0/data/typemap/osmPolyconvert.typ.xml"/>
    </input>

    <output>
        <output-file value="osm.poly.xml"/>
    </output>

    <processing>
        <poi-layer-offset value="5"/>
    </processing>

    <report>
        <verbose value="true"/>
    </report>

</configuration>
-->

<additional xmlns:xsi="http://www.w3.org/2001/XMLSchema-instance" xsi:noNamespaceSchemaLocation="http://sumo.dlr.de/xsd/additional_file.xsd">
    <location netOffset="-475171.97,-1474282.43" convBoundary="0.00,-0.00,11669.14,3263.97" origBoundary="74.770726,13.335816,74.878474,13.365388" projParameter="+proj=utm +zone=43 +ellps=WGS84 +datum=WGS84 +units=m +no_defs"/>

    <poly id="133755116" type="amenity.college" color="237,199,199" fill="1" layer="-1.00" shape="1800.635293,1857.738070 1819.026369,1900.277358 1843.548068,1957.409298 1865.613376,2003.993071 1883.401537,2038.172312 1956.428604,2062.229721 2082.564808,2080.347854 2112.806487,2026.033617 2143.384367,1959.355170 2076.947054,1929.629462 1951.988654,1883.951308 1861.408757,1848.363307 1800.635293,1857.738070"/>
    <poly id="171870078" type="building.yes" color="255,230,230" fill="1" layer="-1.00" shape="1506.342503,1956.085316 1508.103197,1975.989999 1516.543669,1994.174739 1529.915145,2016.955750 1545.911963,2032.822614 1556.953820,2041.461189 1563.928953,2043.191411 1562.446922,2007.405750 1556.041951,2001.350963 1554.004244,1986.633191 1544.995065,1986.928532 1539.754325,1974.812404 1538.291273,1960.956738 1538.289279,1958.656467 1506.342503,1956.085316"/>
    <poly id="171870079" type="building.yes" color="255,230,230" fill="1" layer="-1.00" shape="1503.710946,1943.391862 1513.883557,1948.569705 1514.765937,1954.629275 1521.154842,1954.623731 1522.019138,1952.322708 1526.664880,1952.606212 1535.365673,1933.831533 1544.373623,1932.098519 1541.446200,1915.357722 1552.197821,1913.910733 1551.898941,1906.401928 1549.860152,1902.942225 1546.077945,1899.484034 1548.402353,1895.146890 1544.047730,1893.425459 1541.147898,1896.026839 1538.492485,1893.275448 1535.654307,1892.050359 1532.275117,1891.312336 1529.556831,1890.982923 1526.037415,1890.875386 1521.208170,1891.277699 1517.798231,1892.541384 1514.096263,1894.203447 1510.936266,1896.484345 1508.101275,1898.930846 1505.927217,1901.819134 1504.045726,1904.928348 1501.908438,1912.748921 1501.697943,1919.749455 1502.612535,1925.488285 1503.882522,1928.981828 1505.444087,1931.557220 1507.482122,1934.143259 1503.710946,1943.391862"/>
    <poly id="171870089" type="amenity.college" color="237,199,199" fill="1" layer="-1.00" shape="2257.728997,1346.380197 2252.495348,1278.006820 2160.661780,1003.301255 2173.393878,768.607624 2344.283372,581.257578 2409.882795,628.513164 2486.045504,642.782221 2528.531981,607.944313 2640.436515,642.012956 2729.903019,781.846541 2713.027886,883.083347 2945.082863,934.516814 2919.789856,1058.619276 2855.846646,1352.619462 2573.774173,1298.596133 2508.048841,1553.781662 2485.525529,1710.804963 2482.647909,1740.246409 2586.638297,1755.742250 2543.905850,2066.314352 2472.764145,2056.011182 2332.036806,1941.214590 2336.165481,1931.810982 2302.714164,1917.019950 2322.427446,1871.407169 2333.958657,1766.337014 2342.590076,1676.862488 2383.756303,1580.437844 2411.639089,1500.889321 2439.361094,1384.127448 2257.728997,1346.380197"/>
    <poly id="171871047" type="natural.water" color="181,209,209" fill="1" layer="-4.00" shape="2050.983383,1678.269302 2067.255020,1686.328584 2083.527143,1694.974001 2089.953235,1738.839617 2099.829529,1739.406329 2118.413690,1729.006212 2128.842448,1704.169944 2128.627975,1693.841019 2128.243653,1674.731392 2135.197882,1651.645385 2147.957797,1630.268625 2147.947080,1617.572902 2139.225034,1611.807468 2115.978167,1602.017775 2105.519107,1591.056091 2102.596883,1580.088035 2081.683540,1576.644263 2082.868197,1594.536722 2087.524504,1607.239571 2067.783547,1619.952017 2053.279274,1640.169100 2045.172801,1670.765167 2050.983383,1678.269302"/>
    <poly id="186254016" type="building.yes" color="255,230,230" fill="1" layer="-1.00" shape="1576.570037,1735.120816 1575.989223,1727.158836 1565.128654,1727.931309 1562.454561,1691.118200 1571.376912,1690.480112 1570.817954,1682.750353 1612.062174,1679.784048 1613.201915,1695.464730 1621.669477,1694.849170 1623.105140,1714.643546 1614.767511,1715.236875 1616.005892,1732.288789 1576.570037,1735.120816"/>
    <poly id="186254017" type="building.yes" color="255,230,230" fill="1" layer="-1.00" shape="1566.620925,1763.031296 1580.263908,1761.614994 1586.334631,1819.348803 1572.691676,1820.765103 1566.620925,1763.031296"/>
    <poly id="186254018" type="building.yes" color="255,230,230" fill="1" layer="-1.00" shape="1578.269169,1846.605170 1608.148939,1800.396925 1585.741370,1759.442690 1602.875268,1750.193605 1627.308285,1791.721173 1674.944316,1792.266206 1675.827272,1811.596584 1625.581566,1811.064862 1596.870521,1856.398416 1578.269169,1846.605170"/>
    <poly id="186254019" type="building.yes" color="255,230,230" fill="1" layer="-1.00" shape="1505.497538,1706.229944 1498.936514,1595.369126 1535.330279,1593.236343 1541.891163,1704.108226 1505.497538,1706.229944"/>
    <poly id="186254165" type="building.yes" color="255,230,230" fill="1" layer="-1.00" shape="1769.418491,1885.688830 1789.460639,1883.647837 1809.830587,1935.585576 1792.417916,1948.008705 1797.657068,1958.399677 1826.098934,1939.895712 1799.605323,1868.919606 1768.248925,1872.994098 1769.418491,1885.688830"/>
    <poly id="186254168" type="building.yes" color="255,230,230" fill="1" layer="-1.00" shape="1511.028008,1627.872101 1526.566747,1627.206140 1525.605375,1604.989436 1510.066623,1605.655397 1511.028008,1627.872101"/>
    <poly id="186254169" type="building.yes" color="255,230,230" fill="1" layer="-1.00" shape="1475.907395,1749.197761 1508.390798,1745.940318 1503.508657,1697.915299 1490.179611,1699.253954 1493.805646,1734.816563 1474.640438,1736.746423 1475.907395,1749.197761"/>
    <poly id="186254171" type="building.yes" color="255,230,230" fill="1" layer="-1.00" shape="1535.933318,1776.715753 1531.741452,1725.438784 1545.189823,1724.354403 1549.381663,1775.631374 1535.933318,1776.715753"/>
    <poly id="186254173" type="building.yes" color="255,230,230" fill="1" layer="-1.00" shape="1517.136160,1691.102185 1516.258086,1677.533549 1531.071336,1676.945633 1531.949144,1690.215676 1517.136160,1691.102185"/>
    <poly id="186254175" type="building.yes" color="255,230,230" fill="1" layer="-1.00" shape="1515.250719,1664.717037 1514.255700,1641.173282 1529.328833,1640.551962 1530.323828,1664.084659 1515.250719,1664.717037"/>
    <poly id="186254177" type="building.yes" color="255,230,230" fill="1" layer="-1.00" shape="1484.553813,1854.748451 1482.555343,1822.933429 1510.199560,1821.217394 1508.069311,1787.257038 1544.993290,1784.968977 1547.189451,1820.068355 1518.668145,1821.829349 1520.589802,1852.527480 1484.553813,1854.748451"/>
    <poly id="186254726" type="building.yes" color="255,230,230" fill="1" layer="-1.00" shape="1736.133017,2139.842300 1656.900719,2065.052120 1708.041540,2011.559880 1698.927246,2002.952761 1639.326090,2065.299525 1727.672679,2148.696780 1736.133017,2139.842300"/>
    <poly id="186254727" type="building.yes" color="255,230,230" fill="1" layer="-1.00" shape="1754.903788,2069.833721 1767.258926,2082.087548 1779.885131,2069.524740 1767.529984,2057.259849 1754.903788,2069.833721"/>
    <poly id="186254728" type="building.yes" color="255,230,230" fill="1" layer="-1.00" shape="1737.318152,2132.851989 1714.993531,2112.246144 1745.480493,2079.640096 1769.528240,2101.848043 1762.074178,2109.816927 1748.701086,2097.475505 1732.494735,2114.796779 1744.144713,2125.547177 1737.318152,2132.851989"/>
    <poly id="186254729" type="building.yes" color="255,230,230" fill="1" layer="-1.00" shape="1726.443905,2041.989489 1739.492974,2055.260135 1751.383708,2043.715375 1738.323810,2030.444732 1726.443905,2041.989489"/>
    <poly id="186254730" type="building.yes" color="255,230,230" fill="1" layer="-1.00" shape="1744.378384,2069.842765 1767.267908,2092.549360 1790.410534,2069.515711 1767.521012,2046.809096 1744.378384,2069.842765"/>
    <poly id="186254731" type="building.yes" color="255,230,230" fill="1" layer="-1.00" shape="1647.050401,2006.624832 1620.228466,2007.322590 1620.519737,2018.580407 1645.165632,2018.492771 1652.024826,2011.353794 1647.050401,2006.624832"/>
    <poly id="186254732" type="building.yes" color="255,230,230" fill="1" layer="-1.00" shape="1621.212551,2043.396218 1645.165632,2018.492771 1652.024826,2011.353794 1647.050401,2006.624832 1618.905334,1979.897399 1626.316315,1972.204988 1667.217144,2011.053156 1628.993887,2050.787971 1621.212551,2043.396218"/>
    <poly id="186254735" type="building.yes" color="255,230,230" fill="1" layer="-1.00" shape="1715.257831,2041.866403 1739.361756,2066.374548 1762.569781,2043.838475 1738.455029,2019.330319 1715.257831,2041.866403"/>
    <poly id="186254737" type="building.yes" color="255,230,230" fill="1" layer="-1.00" shape="1684.727923,2087.477912 1692.314095,2094.615495 1713.540622,2072.313324 1732.451825,2090.079938 1741.561281,2080.506067 1691.124121,2033.117388 1683.053270,2041.595540 1706.982235,2064.091068 1684.727923,2087.477912"/>
    <poly id="186258450" type="building.yes" color="255,230,230" fill="1" layer="-1.00" shape="1948.564295,1919.166090 1955.150363,1921.792524 1956.587534,1918.219242 1959.425605,1919.344845 1960.290081,1917.209721 1993.242074,1930.352964 1992.690978,1931.724748 2000.501091,1934.836749 1998.339889,1940.169025 1998.599241,1939.538442 2009.799866,1943.996763 2018.477030,1922.501751 1957.100956,1898.036125 1948.564295,1919.166090"/>
    <poly id="186258458" type="building.yes" color="255,230,230" fill="1" layer="-1.00" shape="1905.129827,2019.906404 1956.830271,1987.105567 1930.134733,1945.557515 1878.434240,1978.358402 1905.129827,2019.906404"/>
    <poly id="186258461" type="building.yes" color="255,230,230" fill="1" layer="-1.00" shape="1844.059966,1935.545210 1817.135060,1866.681725 1831.748977,1861.051238 1858.673850,1929.914736 1844.059966,1935.545210"/>
    <poly id="186258766" type="building.yes" color="255,230,230" fill="1" layer="-1.00" shape="1949.435573,1937.733414 1967.622994,1944.895224 1961.625875,1959.918454 1975.285381,1965.292565 1981.509410,1949.683017 1992.309204,1953.942610 1999.300435,1936.397089 1956.675350,1919.612602 1949.435573,1937.733414"/>
    <poly id="186258768" type="building.yes" color="255,230,230" fill="1" layer="-1.00" shape="1996.592956,2025.214244 2000.417407,2014.760236 2023.738619,2023.200565 2019.914151,2033.643511 1996.592956,2025.214244"/>
    <poly id="186258769" type="building.yes" color="255,230,230" fill="1" layer="-1.00" shape="1902.472778,2040.555833 1955.301147,2048.008802 1957.615514,2031.816450 1904.787114,2024.363476 1902.472778,2040.555833"/>
    <poly id="186258770" type="building.yes" color="255,230,230" fill="1" layer="-1.00" shape="1852.144113,2069.120007 1862.724550,2057.487945 1846.592814,2022.909175 1819.490227,2049.916348 1812.324403,2040.455979 1849.112161,2005.898271 1874.442305,2058.882423 1856.840568,2078.084843 1852.144113,2069.120007"/>
    <poly id="186258772" type="building.yes" color="255,230,230" fill="1" layer="-1.00" shape="1946.051166,2019.838338 1966.426546,2027.739236 1958.290258,2048.492853 1976.315023,2055.477863 1984.602613,2034.359175 1988.155565,2035.727471 1995.384268,2017.319143 1996.781621,2017.859847 1993.336915,2016.447222 2001.351305,1992.376019 1992.609834,1989.132102 1988.103692,1987.454965 1982.243322,1985.015908 1973.632515,2008.081255 1953.420297,2001.053874 1946.051166,2019.838338"/>
    <poly id="186258774" type="building.yes" color="255,230,230" fill="1" layer="-1.00" shape="2020.152496,1918.994625 1998.207131,1975.082411 2021.691464,1984.296730 2043.929319,1928.297188 2020.152496,1918.994625"/>
    <poly id="186258776" type="building.yes" color="255,230,230" fill="1" layer="-1.00" shape="1989.459215,2053.420768 2024.848186,2067.413519 2031.915114,2049.757351 1996.526123,2035.764591 1989.459215,2053.420768"/>
    <poly id="186258778" type="building.yes" color="255,230,230" fill="1" layer="-1.00" shape="2002.449085,1997.185753 2005.345765,1990.835424 1993.733051,1985.647561 1992.609730,1989.010453 1988.136037,1987.289052 1989.659763,1983.627226 1980.366826,1981.323797 1983.554898,1973.823082 1996.336614,1978.423819 1998.066669,1975.447477 2012.343589,1981.053321 2026.652876,1986.526437 2024.817115,1992.544093 2043.112803,1999.750097 2036.593319,2011.754646 2002.449085,1997.185753"/>
    <poly id="186258779" type="building.yes" color="255,230,230" fill="1" layer="-1.00" shape="2027.179031,2045.072353 2054.487751,2056.594786 2061.751057,2053.414695 2056.807090,2046.197357 2066.095836,2043.590618 2060.859261,2036.097052 2068.988366,2032.330102 2065.505539,2024.259981 2073.342772,2021.079407 2068.690687,2013.286751 2079.430726,2010.966322 2072.450252,2002.899162 2048.046250,1994.548181 2027.179031,2045.072353"/>
    <poly id="186259462" type="leisure.park" color="207,245,201" fill="1" layer="-2.00" shape="1677.979963,1947.244477 1690.194191,1959.232975 1765.191734,2032.887809 1811.908909,1985.227665 1775.275665,1947.448342 1742.306663,1864.213411 1677.390240,1941.472185 1677.979963,1947.244477"/>
    <poly id="186259463" type="building.yes" color="255,230,230" fill="1" layer="-1.00" shape="1639.155148,1955.085621 1657.569964,1937.043553 1665.741876,1945.275465 1660.180650,1950.732350 1689.616847,1980.400408 1695.405284,1974.722153 1702.753483,1982.125360 1688.796312,1995.806309 1654.472155,1961.210152 1649.787301,1965.792622 1639.155148,1955.085621"/>
    <poly id="186259464" type="building.yes" color="255,230,230" fill="1" layer="-1.00" shape="1630.311082,1971.040343 1672.218502,2009.345758 1677.097677,2004.077466 1670.812114,1998.332201 1674.241597,1994.624478 1679.410945,1999.364336 1682.223769,1996.320686 1641.432572,1959.031720 1630.311082,1971.040343"/>
    <poly id="186259465" type="building.yes" color="255,230,230" fill="1" layer="-1.00" shape="1832.627394,1571.558987 1840.715144,1519.320406 1861.335941,1522.476707 1853.248143,1574.704222 1832.627394,1571.558987"/>
    <poly id="186259466" type="building.yes" color="255,230,230" fill="1" layer="-1.00" shape="1627.132313,1926.508473 1651.215754,1901.958812 1669.824505,1920.411302 1652.990291,1938.031755 1649.793842,1935.723181 1646.028208,1938.900364 1642.250247,1940.341296 1635.861846,1940.932937 1631.495156,1937.762773 1628.882451,1934.292502 1627.135054,1929.682406 1627.132313,1926.508473"/>
    <poly id="186259822" type="building.yes" color="255,230,230" fill="1" layer="-1.00" shape="2379.081456,1908.263651 2383.430939,1890.941622 2357.842233,1864.410354 2351.750755,1870.475782 2338.963487,1859.228421 2352.889625,1846.808569 2344.748588,1836.430980 2353.167030,1828.914876 2361.599239,1837.854554 2372.915442,1825.149361 2363.617177,1816.497938 2370.865170,1807.832682 2380.747944,1816.196085 2397.291052,1799.438943 2406.306085,1806.077877 2414.147268,1807.509004 2423.434692,1803.177188 2431.880114,1827.986541 2444.946989,1823.939116 2448.151064,1835.470983 2437.411165,1838.078796 2442.068939,1852.794443 2453.977613,1849.323056 2456.597420,1861.441537 2445.858489,1865.199483 2450.518659,1882.801527 2441.804220,1885.982721 2438.898052,1881.086006 2402.308204,1894.387324 2400.005807,1912.282708 2379.081456,1908.263651"/>
    <poly id="186259823" type="building.yes" color="255,230,230" fill="1" layer="-1.00" shape="2359.486930,1746.365219 2361.191266,1699.617406 2367.873086,1700.186887 2368.446015,1686.041950 2389.648957,1686.311768 2390.523699,1696.418962 2388.792563,1711.139935 2389.967129,1717.199285 2388.800756,1720.949259 2385.034284,1723.263736 2378.646049,1724.131675 2377.209949,1742.026335 2359.486930,1746.365219"/>
    <poly id="186259824" type="building.yes" color="255,230,230" fill="1" layer="-1.00" shape="2389.171514,1879.623470 2364.808665,1855.745331 2399.340347,1815.605489 2413.571670,1818.480011 2432.501675,1872.144607 2399.980750,1882.268604 2394.930708,1877.628040 2389.171514,1879.623470"/>
    <poly id="186259825" type="building.yes" color="255,230,230" fill="1" layer="-1.00" shape="2376.257308,1794.203488 2397.291052,1799.438943 2402.111250,1775.193594 2428.441122,1781.475258 2423.434692,1803.177188 2446.386251,1809.793457 2448.414595,1800.845038 2437.952136,1798.542424 2440.745677,1785.225062 2452.756195,1786.984496 2455.075233,1776.012038 2383.808702,1759.836869 2380.429262,1771.750234 2393.209083,1774.050890 2390.273055,1785.289285 2379.734248,1782.345336 2376.257308,1794.203488"/>
    <poly id="186259862" type="leisure.park" color="207,245,201" fill="1" layer="-2.00" shape="2455.195083,1984.938555 2493.412605,1936.744808 2519.439975,1957.127035 2481.222436,2005.320745 2455.195083,1984.938555"/>
    <poly id="186259863" type="building.yes" color="255,230,230" fill="1" layer="-1.00" shape="2418.349593,1977.205849 2436.072708,1973.154534 2452.024270,1948.313787 2442.143731,1942.549221 2449.390038,1931.871249 2458.405005,1938.499140 2475.517199,1915.968773 2483.373028,1922.033628 2479.870349,1902.981886 2498.451146,1901.528765 2500.497727,1914.510330 2507.764237,1915.079359 2517.349045,1916.807660 2523.740351,1919.688752 2531.292242,1924.880212 2536.527751,1931.223733 2541.768762,1944.202650 2553.682194,1946.504099 2554.268317,1961.223142 2537.712515,1962.674544 2546.143427,1970.176610 2528.153127,1991.546467 2536.290219,1997.312511 2527.592145,2007.129063 2519.737801,2002.811516 2505.521456,2017.830389 2499.713234,2012.925020 2497.387241,2015.525819 2498.851468,2031.394267 2482.296438,2033.719365 2479.678820,2024.199743 2474.155985,2023.916804 2467.191978,2022.473871 2459.338586,2019.306477 2452.079329,2014.413386 2447.137386,2009.507306 2442.779229,2003.450606 2440.446742,1998.254819 2439.858872,1994.506308 2439.565052,1992.770290 2421.278141,1995.959470 2418.349593,1977.205849"/>
    <poly id="186260307" type="building.yes" color="255,230,230" fill="1" layer="-1.00" shape="2454.376090,1352.508335 2460.480380,1322.632908 2481.437835,1326.862128 2475.344351,1356.737540 2454.376090,1352.508335"/>
    <poly id="186260308" type="building.yes" color="255,230,230" fill="1" layer="-1.00" shape="2483.845343,1552.463638 2521.404644,1388.858827 2541.376857,1393.387504 2503.817442,1556.992286 2483.845343,1552.463638"/>
    <poly id="186260310" type="building.yes" color="255,230,230" fill="1" layer="-1.00" shape="2446.356276,1357.790153 2455.167581,1314.663795 2489.468494,1321.580311 2480.657136,1364.706658 2446.356276,1357.790153"/>
    <poly id="186260312" type="building.yes" color="255,230,230" fill="1" layer="-1.00" shape="2432.296568,1470.172323 2437.397149,1444.411670 2453.090725,1447.484059 2448.000949,1473.233640 2432.296568,1470.172323"/>
    <poly id="186260317" type="building.yes" color="255,230,230" fill="1" layer="-1.00" shape="2443.498147,1410.632414 2448.718670,1385.833798 2466.264504,1389.490779 2461.033136,1414.289401 2443.498147,1410.632414"/>
    <poly id="186260318" type="building.yes" color="255,230,230" fill="1" layer="-1.00" shape="2416.180325,1531.596367 2422.134539,1503.656376 2439.886112,1507.390581 2433.931880,1535.330568 2416.180325,1531.596367"/>
    <poly id="186260321" type="building.yes" color="255,230,230" fill="1" layer="-1.00" shape="2423.411021,1476.096293 2431.433925,1435.591561 2461.976287,1441.560099 2453.964168,1482.064813 2423.411021,1476.096293"/>
    <poly id="186260322" type="building.yes" color="255,230,230" fill="1" layer="-1.00" shape="2434.428460,1416.523356 2442.798606,1376.836706 2475.334207,1383.599848 2466.964025,1423.297546 2434.428460,1416.523356"/>
    <poly id="186260323" type="building.yes" color="255,230,230" fill="1" layer="-1.00" shape="2407.521940,1537.199443 2416.496363,1495.046120 2448.544513,1501.787516 2439.570042,1543.940828 2407.521940,1537.199443"/>
    <poly id="186260324" type="building.yes" color="255,230,230" fill="1" layer="-1.00" shape="2495.881345,1324.151727 2507.130129,1269.046472 2562.204425,1280.137196 2550.955542,1335.253485 2495.881345,1324.151727"/>
    <poly id="186263424" type="building.yes" color="255,230,230" fill="1" layer="-1.00" shape="2437.956375,1660.692007 2439.797426,1621.895509 2451.471312,1622.438735 2461.152628,1622.895152 2459.311546,1661.691648 2448.612303,1661.191843 2437.956375,1660.692007"/>
    <poly id="186263425" type="building.yes" color="255,230,230" fill="1" layer="-1.00" shape="2400.130988,1724.976334 2407.397072,1724.970269 2407.682223,1716.310835 2401.866708,1715.740621 2398.668619,1711.419222 2397.797740,1705.934686 2398.086497,1701.599318 2393.440964,1701.603196 2395.168252,1682.270625 2426.529290,1683.394595 2425.971014,1702.162181 2430.908923,1702.158064 2430.921193,1716.877580 2421.619054,1716.586743 2420.480605,1740.840076 2399.867268,1746.331480 2399.958670,1739.076701 2400.130988,1724.976334"/>
    <poly id="186263428" type="building.school" color="255,230,230" fill="1" layer="-1.00" shape="1627.357436,1372.065164 1630.333697,1345.023338 1639.008465,1345.966925 1636.311608,1370.531293 1654.819920,1372.539124 1653.981780,1380.093144 1635.202732,1378.063429 1635.761443,1372.975807 1627.357436,1372.065164"/>
    <poly id="186263430" type="amenity.swimming_pool" color="237,199,199" fill="1" layer="-1.00" shape="2218.323318,2080.686658 2217.449993,2072.326787 2220.346706,2065.965422 2224.122008,2061.350641 2227.891330,2062.497606 2230.658950,2070.015399 2228.923073,2078.963592 2223.988880,2083.302873 2218.323318,2080.686658"/>
    <poly id="186263430#1" type="sport.swimming" color="79,230,125" fill="1" layer="-2.00" shape="2218.323318,2080.686658 2217.449993,2072.326787 2220.346706,2065.965422 2224.122008,2061.350641 2227.891330,2062.497606 2230.658950,2070.015399 2228.923073,2078.963592 2223.988880,2083.302873 2218.323318,2080.686658"/>
    <poly id="186263436" type="landuse.recreation_ground" color="194,194,130" fill="1" layer="-3.00" shape="1687.309616,1313.157475 1687.244762,1237.834684 1829.868804,1245.785333 1808.144269,1319.689103 1687.309616,1313.157475"/>
    <poly id="186263437" type="building.yes" color="255,230,230" fill="1" layer="-1.00" shape="2427.030261,1751.749846 2428.890193,1722.641011 2438.474116,1723.219150 2438.187270,1729.854788 2463.169406,1730.121515 2462.904178,1762.734722 2454.771328,1762.166425 2450.128927,1765.919292 2445.185742,1759.575545 2448.085915,1757.261798 2448.374449,1752.649955 2427.030261,1751.749846"/>
    <poly id="186263439" type="building.yes" color="255,230,230" fill="1" layer="-1.00" shape="2383.066650,1649.313858 2385.927867,1574.419936 2400.276489,1574.960905 2397.415231,1649.854826 2383.066650,1649.313858"/>
    <poly id="186263440" type="building.school" color="255,230,230" fill="1" layer="-1.00" shape="1626.621543,1347.525876 1602.862249,1321.679396 1645.440675,1283.013547 1669.199952,1308.849005 1626.621543,1347.525876"/>
    <poly id="186263441" type="amenity.swimming_pool" color="237,199,199" fill="1" layer="-1.00" shape="2311.610765,1265.438446 2310.853709,1240.744343 2359.052105,1239.277396 2359.809117,1263.971499 2311.610765,1265.438446"/>
    <poly id="186263441#1" type="sport.swimming" color="79,230,125" fill="1" layer="-2.00" shape="2311.610765,1265.438446 2310.853709,1240.744343 2359.052105,1239.277396 2359.809117,1263.971499 2311.610765,1265.438446"/>
    <poly id="186275543" type="building.yes" color="255,230,230" fill="1" layer="-1.00" shape="1559.403259,1631.380105 1601.371107,1626.123945 1598.274689,1601.785756 1583.040212,1603.690021 1584.577499,1615.743004 1574.561951,1617.001337 1572.882909,1603.820459 1556.175881,1605.914016 1559.403259,1631.380105"/>
    <poly id="186275544" type="leisure.park" color="207,245,201" fill="1" layer="-2.00" shape="1445.767081,1433.588948 1446.879898,1393.311093 1459.859013,1288.250347 1543.006427,1379.083169 1445.484080,1456.813100 1445.767081,1433.588948"/>
    <poly id="186275545" type="building.yes" color="255,230,230" fill="1" layer="-1.00" shape="1959.744274,2001.114843 1966.982346,1981.003414 1977.521810,1984.754508 1970.283731,2004.865934 1959.744274,2001.114843"/>
    <poly id="186275546" type="building.yes" color="255,230,230" fill="1" layer="-1.00" shape="2030.913636,1992.538918 2035.256950,1980.989633 2043.099089,1983.581846 2045.423578,1979.255805 2032.348756,1973.781631 2038.434013,1960.494606 2048.898406,1965.108393 2051.212313,1961.069895 2044.821696,1959.051517 2050.916328,1944.039282 2063.697560,1948.064984 2059.344627,1961.063001 2062.540052,1962.210429 2068.915012,1945.749232 2082.866717,1950.935147 2075.615848,1968.834753 2070.102850,1967.401752 2067.486469,1972.303107 2077.658966,1977.492221 2075.918974,1981.530231 2064.017813,1980.965245 2062.559124,1984.715484 2068.668677,1987.309172 2064.032246,1997.996098 2046.593253,1992.238082 2044.562366,1998.012604 2030.913636,1992.538918"/>
    <poly id="186275547" type="building.yes" color="255,230,230" fill="1" layer="-1.00" shape="1563.139997,1669.829025 1560.379519,1645.811259 1603.701228,1640.885700 1606.341586,1663.786613 1590.879615,1665.547304 1589.199407,1651.006167 1578.848113,1652.187376 1580.648400,1667.834309 1563.139997,1669.829025"/>
    <poly id="186276680" type="building.yes" color="255,230,230" fill="1" layer="-1.00" shape="1653.887412,1898.450802 1670.656289,1880.376988 1686.608702,1894.983245 1669.839833,1913.068109 1653.887412,1898.450802"/>
    <poly id="186276681" type="building.yes" color="255,230,230" fill="1" layer="-1.00" shape="1841.517207,1874.579098 1861.553837,1866.068647 1868.563090,1882.352568 1848.526470,1890.863014 1841.517207,1874.579098"/>
    <poly id="186276682" type="building.yes" color="255,230,230" fill="1" layer="-1.00" shape="1674.726062,1878.272269 1694.458932,1856.601739 1701.716392,1859.194357 1707.235055,1854.578002 1710.725862,1859.186603 1706.950133,1863.237447 1712.770096,1868.994180 1687.223459,1892.107375 1674.726062,1878.272269"/>
    <poly id="186276684" type="building.yes" color="255,230,230" fill="1" layer="-1.00" shape="1867.487434,1928.801302 1859.478504,1908.481699 1854.542276,1910.410187 1847.879010,1893.506670 1868.024491,1885.670729 1882.696658,1922.882799 1867.487434,1928.801302"/>
    <poly id="186276685" type="building.yes" color="255,230,230" fill="1" layer="-1.00" shape="1903.491695,2092.510166 1897.086312,2073.173435 1911.017797,2067.388745 1957.206220,2072.547110 1956.057635,2084.381223 1913.930694,2080.081997 1917.715298,2086.437696 1903.491695,2092.510166"/>
    <poly id="186276686" type="leisure.park" color="207,245,201" fill="1" layer="-2.00" shape="1664.087884,1672.207964 1645.471859,1632.975618 1649.457223,1545.528648 1731.425428,1614.145528 1669.322905,1677.688717 1664.087884,1672.207964"/>
    <poly id="186276687" type="building.yes" color="255,230,230" fill="1" layer="-1.00" shape="1888.368992,1895.307859 1913.794860,1908.147780 1921.956907,1892.193737 1913.929397,1888.141929 1918.826630,1878.571715 1916.822457,1877.555996 1912.725207,1885.555150 1897.341839,1877.782738 1888.368992,1895.307859"/>
    <poly id="186276688" type="building.yes" color="255,230,230" fill="1" layer="-1.00" shape="1870.875826,2003.678921 1859.936880,1975.985466 1868.791760,1972.527488 1879.719869,2000.220955 1870.875826,2003.678921"/>
    <poly id="186276690" type="building.yes" color="255,230,230" fill="1" layer="-1.00" shape="1457.228779,1551.114061 1520.471406,1503.826130 1517.143135,1499.427534 1509.254029,1505.328827 1500.483442,1493.746604 1521.856547,1477.758859 1529.185245,1487.440190 1521.101338,1493.485416 1526.532810,1500.657998 1558.868464,1476.488177 1567.302955,1487.628348 1466.324606,1563.127288 1457.228779,1551.114061"/>
    <poly id="186276693" type="building.yes" color="255,230,230" fill="1" layer="-1.00" shape="1558.954672,1463.493774 1514.797457,1404.388504 1528.162573,1394.523342 1572.319774,1453.628634 1558.954672,1463.493774"/>
    <poly id="186276694" type="leisure.park" color="207,245,201" fill="1" layer="-2.00" shape="1636.022166,1787.964647 1616.236922,1749.020862 1649.618047,1731.961178 1687.132231,1786.195371 1636.022166,1787.964647"/>
    <poly id="186276696" type="building.yes" color="255,230,230" fill="1" layer="-1.00" shape="1864.809745,1963.285564 1905.077328,1933.004798 1910.519410,1940.144271 1870.241002,1970.425038 1864.809745,1963.285564"/>
    <poly id="186276697" type="building.yes" color="255,230,230" fill="1" layer="-1.00" shape="1872.523740,1879.252662 1883.553726,1874.045508 1886.744250,1869.431179 1885.581387,1864.521975 1860.299585,1855.596844 1856.818174,1861.947688 1873.674273,1869.729878 1867.871573,1871.460041 1872.523740,1879.252662"/>
    <poly id="246989062" type="building.yes" color="255,230,230" fill="1" layer="-1.00" shape="1866.380740,1571.485886 1878.461124,1566.134069 1870.313166,1547.971091 1858.232776,1553.322912 1866.380740,1571.485886"/>
    <poly id="246989064" type="building.yes" color="255,230,230" fill="1" layer="-1.00" shape="1845.798038,1638.145024 1870.534198,1629.232441 1853.145717,1581.560890 1828.409518,1590.473489 1845.798038,1638.145024"/>
    <poly id="246989067" type="building.yes" color="255,230,230" fill="1" layer="-1.00" shape="1752.410141,1486.307561 1797.670800,1469.094105 1791.462887,1452.986462 1746.213034,1470.199919 1752.410141,1486.307561"/>
    <poly id="246989069" type="building.yes" color="255,230,230" fill="1" layer="-1.00" shape="1862.340913,1596.029262 1889.220860,1586.694622 1884.726822,1573.914254 1857.846872,1583.259957 1862.340913,1596.029262"/>