<?xml version="1.0" encoding="UTF-8"?>

<!-- generated on Wed Nov 25 19:52:11 2020 by Eclipse SUMO duarouter Version 1.7.0
<configuration xmlns:xsi="http://www.w3.org/2001/XMLSchema-instance" xsi:noNamespaceSchemaLocation="http://sumo.dlr.de/xsd/duarouterConfiguration.xsd">

    <input>
        <net-file value="/home/shashwath/Sumo/2020-11-25-19-52-06/osm.net.xml"/>
        <route-files value="/home/shashwath/Sumo/2020-11-25-19-52-06/osm.passenger.trips.xml"/>
    </input>

    <output>
        <output-file value="/home/shashwath/Sumo/2020-11-25-19-52-06/osm.passenger.trips.xml.tmp"/>
        <write-trips value="true"/>
    </output>

    <time>
        <begin value="0"/>
        <end value="3600"/>
    </time>

    <report>
        <no-warnings value="true"/>
        <ignore-errors value="true"/>
        <no-step-log value="true"/>
    </report>

</configuration>
-->

<routes xmlns:xsi="http://www.w3.org/2001/XMLSchema-instance" xsi:noNamespaceSchemaLocation="http://sumo.dlr.de/xsd/routes_file.xsd">
    <vType id="veh_passenger" vClass="passenger"/>
    <trip id="veh2" type="veh_passenger" depart="5.46" departLane="best" from="706734275#1" to="-171865792#3"/>
    <trip id="veh3" type="veh_passenger" depart="8.18" departLane="best" from="-800715314" to="-133755118#1"/>
    <trip id="veh4" type="veh_passenger" depart="10.91" departLane="best" from="-186263433#0" to="158486424#0"/>
    <trip id="veh5" type="veh_passenger" depart="13.64" departLane="best" from="186258462" to="171865797#5"/>
    <trip id="veh6" type="veh_passenger" depart="16.37" departLane="best" from="-186263433#1" to="171867135"/>
    <trip id="veh7" type="veh_passenger" depart="19.09" departLane="best" from="374529122#0" to="-122612356#1"/>
    <trip id="veh8" type="veh_passenger" depart="21.82" departLane="best" from="374529120#1" to="288926324#5"/>
    <trip id="veh9" type="veh_passenger" depart="24.55" departLane="best" from="-706318011" to="-171867136#0"/>
    <trip id="veh11" type="veh_passenger" depart="30.01" departLane="best" from="374533524#5" to="171867136#3"/>
    <trip id="veh12" type="veh_passenger" depart="32.73" departLane="best" from="374529120#1" to="306475942#2"/>
    <trip id="veh13" type="veh_passenger" depart="35.46" departLane="best" from="171865797#2" to="804217356#6"/>
    <trip id="veh14" type="veh_passenger" depart="38.19" departLane="best" from="374533523#1" to="171870085"/>
    <trip id="veh15" type="veh_passenger" depart="40.92" departLane="best" from="374533525#2" to="171867130#1"/>
    <trip id="veh17" type="veh_passenger" depart="46.37" departLane="best" from="-186263438#0" to="-306475942#0"/>
    <trip id="veh18" type="veh_passenger" depart="49.10" departLane="best" from="-171865792#0" to="-236471193#0"/>
    <trip id="veh19" type="veh_passenger" depart="51.83" departLane="best" from="-171865797#3" to="-306475941#0"/>
    <trip id="veh20" type="veh_passenger" depart="54.56" departLane="best" from="186254733#0" to="-706734276#0"/>
    <trip id="veh21" type="veh_passenger" depart="57.28" departLane="best" from="-706734276#2" to="-186258453"/>
    <trip id="veh23" type="veh_passenger" depart="62.74" departLane="best" from="186258453" to="171867138"/>
    <trip id="veh24" type="veh_passenger" depart="65.47" departLane="best" from="-171867136#4" to="306475942#2"/>
    <trip id="veh25" type="veh_passenger" depart="68.19" departLane="best" from="-171867136#2" to="-800384378"/>
    <trip id="veh27" type="veh_passenger" depart="73.65" departLane="best" from="374533524#4" to="374529115"/>
    <trip id="veh28" type="veh_passenger" depart="76.38" departLane="best" from="-186263438#1" to="-133755118#2"/>
    <trip id="veh30" type="veh_passenger" depart="81.83" departLane="best" from="-186258453" to="800610499"/>
    <trip id="veh31" type="veh_passenger" depart="84.56" departLane="best" from="706318011" to="-306475950"/>
    <trip id="veh32" type="veh_passenger" depart="87.29" departLane="best" from="186263433#1" to="-800610496"/>
    <trip id="veh33" type="veh_passenger" depart="90.02" departLane="best" from="720452476" to="133055393#1"/>
    <trip id="veh35" type="veh_passenger" depart="95.47" departLane="best" from="171867131" to="706734275#3"/>
    <trip id="veh36" type="veh_passenger" depart="98.20" departLane="best" from="-800610497" to="-186263433#1"/>
    <trip id="veh37" type="veh_passenger" depart="100.93" departLane="best" from="817230302" to="158486424#1"/>
    <trip id="veh38" type="veh_passenger" depart="103.66" departLane="best" from="-171865797#1" to="-133755126#3"/>
    <trip id="veh39" type="veh_passenger" depart="106.38" departLane="best" from="-171865797#6" to="171870086#1"/>
    <trip id="veh40" type="veh_passenger" depart="109.11" departLane="best" from="374529118#5" to="-800715314"/>
    <trip id="veh41" type="veh_passenger" depart="111.84" departLane="best" from="-133755126#9" to="-800384378"/>
    <trip id="veh43" type="veh_passenger" depart="117.30" departLane="best" departSpeed="max" from="804207591#0" to="374533525#2"/>
    <trip id="veh44" type="veh_passenger" depart="120.02" departLane="best" from="-122612374#1" to="306475941#2"/>
    <trip id="veh45" type="veh_passenger" depart="122.75" departLane="best" from="288926324#0" to="171865797#2"/>
    <trip id="veh47" type="veh_passenger" depart="128.21" departLane="best" from="-171865797#7" to="122612356#1"/>
    <trip id="veh48" type="veh_passenger" depart="130.93" departLane="best" from="133055393#0" to="800715314"/>
    <trip id="veh50" type="veh_passenger" depart="136.39" departLane="best" from="133755126#9" to="-171870082"/>
    <trip id="veh51" type="veh_passenger" depart="139.12" departLane="best" from="720452476" to="374533525#5"/>
    <trip id="veh53" type="veh_passenger" depart="144.57" departLane="best" from="374529112#0" to="171865797#3"/>
    <trip id="veh54" type="veh_passenger" depart="147.30" departLane="best" from="374529118#1" to="171865797#1"/>
    <trip id="veh55" type="veh_passenger" depart="150.03" departLane="best" from="-122612356#0" to="-373896382#5"/>
    <trip id="veh56" type="veh_passenger" depart="152.76" departLane="best" from="-122612374#3" to="800610495#0"/>
    <trip id="veh57" type="veh_passenger" depart="155.48" departLane="best" from="706318011" to="374533524#1"/>
    <trip id="veh59" type="veh_passenger" depart="160.94" departLane="best" from="706318011" to="800669862"/>
    <trip id="veh60" type="veh_passenger" depart="163.67" departLane="best" from="-171865792#3" to="133755126#3"/>
    <trip id="veh61" type="veh_passenger" depart="166.40" departLane="best" from="-158486424#1" to="373896382#5"/>
    <trip id="veh62" type="veh_passenger" depart="169.12" departLane="best" from="374529112#1" to="-171867129"/>
    <trip id="veh63" type="veh_passenger" depart="171.85" departLane="best" from="133755126#0" to="171865797#6"/>
    <trip id="veh66" type="veh_passenger" depart="180.03" departLane="best" from="171865797#3" to="306475942#2"/>
    <trip id="veh67" type="veh_passenger" depart="182.76" departLane="best" from="-186254733#0" to="-306475948"/>
    <trip id="veh69" type="veh_passenger" depart="188.22" departLane="best" from="122612374#0" to="171865792#0"/>
    <trip id="veh70" type="veh_passenger" depart="190.95" departLane="best" from="-171865800" to="-186263433#2"/>
    <trip id="veh71" type="veh_passenger" depart="193.67" departLane="best" from="-588939865" to="171867135"/>
    <trip id="veh72" type="veh_passenger" depart="196.40" departLane="best" from="-158486424#2" to="171902831#0"/>
    <trip id="veh73" type="veh_passenger" depart="199.13" departLane="best" from="-186263438#0" to="706734276#2"/>
    <trip id="veh74" type="veh_passenger" depart="201.86" departLane="best" from="374533525#2" to="-158486424#2"/>
    <trip id="veh75" type="veh_passenger" depart="204.58" departLane="best" from="-186258462" to="-171867130#0"/>
    <trip id="veh76" type="veh_passenger" depart="207.31" departLane="best" from="133755118#3" to="374529118#3"/>
    <trip id="veh77" type="veh_passenger" depart="210.04" departLane="best" from="374529120#1" to="-171870086#1"/>
    <trip id="veh78" type="veh_passenger" depart="212.77" departLane="best" from="-171865797#2" to="122612356#0"/>
    <trip id="veh82" type="veh_passenger" depart="223.68" departLane="best" from="-800610498#0" to="-706318011"/>
    <trip id="veh83" type="veh_passenger" depart="226.41" departLane="best" from="374533525#2" to="-288926324#1"/>
    <trip id="veh84" type="veh_passenger" depart="229.14" departLane="best" from="-171870086#1" to="122612374#3"/>
    <trip id="veh85" type="veh_passenger" depart="231.86" departLane="best" from="-800715314" to="-306475941#0"/>
    <trip id="veh86" type="veh_passenger" depart="234.59" departLane="best" from="-288926324#2" to="800384380"/>
    <trip id="veh87" type="veh_passenger" depart="237.32" departLane="best" from="122612374#2" to="374533525#2"/>
    <trip id="veh88" type="veh_passenger" depart="240.05" departLane="best" from="171865797#6" to="-133755126#5"/>
    <trip id="veh89" type="veh_passenger" depart="242.77" departLane="best" from="817230302" to="374533524#2"/>
    <trip id="veh90" type="veh_passenger" depart="245.50" departLane="best" departSpeed="max" from="804207591#0" to="800610495#0"/>
    <trip id="veh91" type="veh_passenger" depart="248.23" departLane="best" from="374533524#6" to="-171867136#3"/>
    <trip id="veh92" type="veh_passenger" depart="250.96" departLane="best" from="-800610497" to="-133755126#8"/>
    <trip id="veh93" type="veh_passenger" depart="253.69" departLane="best" from="-800384378" to="804217356#9"/>
    <trip id="veh95" type="veh_passenger" depart="259.14" departLane="best" from="804207582" to="804217356#9"/>
    <trip id="veh96" type="veh_passenger" depart="261.87" departLane="best" from="171865797#8" to="306475941#1"/>
    <trip id="veh97" type="veh_passenger" depart="264.60" departLane="best" from="-171867135" to="-306475943#0"/>
    <trip id="veh98" type="veh_passenger" depart="267.32" departLane="best" departSpeed="max" from="804207591#0" to="171867130#2"/>
    <trip id="veh99" type="veh_passenger" depart="270.05" departLane="best" from="171865797#4" to="306475948"/>
    <trip id="veh100" type="veh_passenger" depart="272.78" departLane="best" from="-133755126#7" to="171867131"/>
    <trip id="veh101" type="veh_passenger" depart="275.51" departLane="best" from="133755126#9" to="374533525#0"/>
    <trip id="veh102" type="veh_passenger" depart="278.24" departLane="best" from="-171867136#0" to="804207591#4"/>
    <trip id="veh103" type="veh_passenger" depart="280.96" departLane="best" from="-171865792#0" to="-171870086#0"/>
    <trip id="veh104" type="veh_passenger" depart="283.69" departLane="best" from="171867136#1" to="246989090"/>
    <trip id="veh105" type="veh_passenger" depart="286.42" departLane="best" from="-236471193#0" to="-171865800"/>
    <trip id="veh106" type="veh_passenger" depart="289.15" departLane="best" from="706734275#1" to="-288926324#1"/>
    <trip id="veh107" type="veh_passenger" depart="291.87" departLane="best" from="171867136#1" to="171870085"/>
    <trip id="veh108" type="veh_passenger" depart="294.60" departLane="best" from="-800715314" to="171867130#3"/>
    <trip id="veh109" type="veh_passenger" depart="297.33" departLane="best" from="171865792#2" to="800610496"/>
    <trip id="veh110" type="veh_passenger" depart="300.06" departLane="best" from="-186254733#1" to="306475941#1"/>
    <trip id="veh111" type="veh_passenger" depart="302.79" departLane="best" from="-236471193#1" to="-800610496"/>
    <trip id="veh112" type="veh_passenger" depart="305.51" departLane="best" from="236471193#0" to="-306475943#1"/>
    <trip id="veh113" type="veh_passenger" depart="308.24" departLane="best" from="-158486424#2" to="133055393#1"/>
    <trip id="veh114" type="veh_passenger" depart="310.97" departLane="best" from="817230302" to="804217356#9"/>
    <trip id="veh115" type="veh_passenger" depart="313.70" departLane="best" from="-158486424#2" to="-186258462"/>
    <trip id="veh119" type="veh_passenger" depart="324.61" departLane="best" from="374529123" to="-306475943#0"/>
    <trip id="veh120" type="veh_passenger" depart="327.34" departLane="best" from="186263438#0" to="800610498#0"/>
    <trip id="veh121" type="veh_passenger" depart="330.06" departLane="best" from="-171867130#0" to="-171865797#8"/>
    <trip id="veh125" type="veh_passenger" depart="340.97" departLane="best" from="133755126#4" to="706734276#2"/>
    <trip id="veh126" type="veh_passenger" depart="343.70" departLane="best" from="374533524#5" to="-171865797#1"/>
    <trip id="veh127" type="veh_passenger" depart="346.43" departLane="best" from="-122612356#1" to="374529112#3"/>
    <trip id="veh128" type="veh_passenger" depart="349.16" departLane="best" from="186254733#0" to="-288926324#5"/>
    <trip id="veh130" type="veh_passenger" depart="354.61" departLane="best" from="-817230302" to="-122612374#0"/>
    <trip id="veh132" type="veh_passenger" depart="360.07" departLane="best" from="706734276#2" to="171865797#5"/>
    <trip id="veh133" type="veh_passenger" depart="362.80" departLane="best" from="-171867131" to="-171867128"/>
    <trip id="veh135" type="veh_passenger" depart="368.25" departLane="best" from="706734275#3" to="-186258453"/>
    <trip id="veh136" type="veh_passenger" depart="370.98" departLane="best" from="-288926324#2" to="-171865797#4"/>
    <trip id="veh138" type="veh_passenger" depart="376.44" departLane="best" from="-800610498#1" to="171870085"/>
    <trip id="veh139" type="veh_passenger" depart="379.16" departLane="best" from="-171867135" to="800610495#1"/>
    <trip id="veh140" type="veh_passenger" depart="381.89" departLane="best" from="374533525#3" to="804217356#6"/>
    <trip id="veh142" type="veh_passenger" depart="387.35" departLane="best" from="-374530997#1" to="800610495#1"/>
    <trip id="veh143" type="veh_passenger" depart="390.08" departLane="best" from="374529120#0" to="374533525#3"/>
    <trip id="veh145" type="veh_passenger" depart="395.53" departLane="best" from="374529118#3" to="-171865797#6"/>
    <trip id="veh146" type="veh_passenger" depart="398.26" departLane="best" from="578203893" to="374533525#2"/>
    <trip id="veh147" type="veh_passenger" depart="400.99" departLane="best" from="-186263433#2" to="374529123"/>
    <trip id="veh148" type="veh_passenger" depart="403.71" departLane="best" from="133755118#0" to="-306475943#2"/>
    <trip id="veh149" type="veh_passenger" depart="406.44" departLane="best" from="374529118#6" to="-186263438#0"/>
    <trip id="veh150" type="veh_passenger" depart="409.17" departLane="best" from="-133755118#0" to="-171902831#0"/>
    <trip id="veh151" type="veh_passenger" depart="411.90" departLane="best" from="-374529123" to="374533525#3"/>
    <trip id="veh152" type="veh_passenger" depart="414.63" departLane="best" departSpeed="max" from="804207591#0" to="-306475941#0"/>
    <trip id="veh153" type="veh_passenger" depart="417.35" departLane="best" from="186254736" to="-800610497"/>
    <trip id="veh155" type="veh_passenger" depart="422.81" departLane="best" departSpeed="max" from="804207591#0" to="-171870082"/>
    <trip id="veh157" type="veh_passenger" depart="428.26" departLane="best" from="-171865797#6" to="122612356#1"/>
    <trip id="veh159" type="veh_passenger" depart="433.72" departLane="best" from="171867136#4" to="158486424#2"/>
    <trip id="veh160" type="veh_passenger" depart="436.45" departLane="best" from="-800384379" to="171867130#1"/>
    <trip id="veh161" type="veh_passenger" depart="439.18" departLane="best" from="-288926324#3" to="306475940#1"/>
    <trip id="veh162" type="veh_passenger" depart="441.90" departLane="best" from="-122612356#0" to="800384380"/>
    <trip id="veh163" type="veh_passenger" depart="444.63" departLane="best" from="171865797#3" to="306475941#2"/>
    <trip id="veh165" type="veh_passenger" depart="450.09" departLane="best" from="-706734276#0" to="-158486424#1"/>
    <trip id="veh166" type="veh_passenger" depart="452.81" departLane="best" from="186263438#0" to="-374530997#0"/>
    <trip id="veh167" type="veh_passenger" depart="455.54" departLane="best" from="-306475950" to="374533524#5"/>
    <trip id="veh169" type="veh_passenger" depart="461.00" departLane="best" from="-800610498#0" to="-306475942#2"/>
    <trip id="veh170" type="veh_passenger" depart="463.73" departLane="best" from="-171867128" to="-800715314"/>
    <trip id="veh171" type="veh_passenger" depart="466.45" departLane="best" from="800610498#1" to="246989090"/>
    <trip id="veh172" type="veh_passenger" depart="469.18" departLane="best" from="706734276#2" to="171870082"/>
    <trip id="veh174" type="veh_passenger" depart="474.64" departLane="best" from="-122612356#0" to="-306475942#0"/>
    <trip id="veh175" type="veh_passenger" depart="477.36" departLane="best" from="122612356#0" to="171867130#2"/>
    <trip id="veh176" type="veh_passenger" depart="480.09" departLane="best" from="186263433#0" to="133755118#1"/>
    <trip id="veh177" type="veh_passenger" depart="482.82" departLane="best" from="122612374#1" to="-186258462"/>
    <trip id="veh178" type="veh_passenger" depart="485.55" departLane="best" from="133755126#0" to="706734276#1"/>
    <trip id="veh179" type="veh_passenger" depart="488.28" departLane="best" from="374529118#6" to="-171867136#4"/>
    <trip id="veh180" type="veh_passenger" depart="491.00" departLane="best" from="-171865792#3" to="171865779"/>
    <trip id="veh181" type="veh_passenger" depart="493.73" departLane="best" from="171902831#1" to="-588939865"/>
    <trip id="veh182" type="veh_passenger" depart="496.46" departLane="best" from="374530997#0" to="306475950"/>
    <trip id="veh183" type="veh_passenger" depart="499.19" departLane="best" from="236471193#1" to="-186263433#2"/>
    <trip id="veh184" type="veh_passenger" depart="501.92" departLane="best" from="-288926324#0" to="133755126#0"/>
    <trip id="veh185" type="veh_passenger" depart="504.64" departLane="best" from="374533524#6" to="-158486424#2"/>
    <trip id="veh186" type="veh_passenger" depart="507.37" departLane="best" from="-800669862" to="171902831#0"/>
    <trip id="veh187" type="veh_passenger" depart="510.10" departLane="best" from="-171902831#0" to="288926324#5"/>
    <trip id="veh188" type="veh_passenger" depart="512.83" departLane="best" from="133755126#7" to="-288926324#0"/>
    <trip id="veh189" type="veh_passenger" depart="515.55" departLane="best" from="306475950" to="374529112#2"/>
    <trip id="veh190" type="veh_passenger" depart="518.28" departLane="best" from="-171865797#5" to="-804207582"/>
    <trip id="veh192" type="veh_passenger" depart="523.74" departLane="best" from="171865792#0" to="-133755126#4"/>
    <trip id="veh193" type="veh_passenger" depart="526.47" departLane="best" from="-288926324#2" to="374533524#5"/>
    <trip id="veh194" type="veh_passenger" depart="529.19" departLane="best" from="133055393#1" to="374529120#0"/>
    <trip id="veh195" type="veh_passenger" depart="531.92" departLane="best" from="186263438#1" to="804217356#9"/>
    <trip id="veh196" type="veh_passenger" depart="534.65" departLane="best" from="171867136#1" to="800669878"/>
    <trip id="veh199" type="veh_passenger" depart="542.83" departLane="best" from="374533523#1" to="171865797#6"/>
    <trip id="veh200" type="veh_passenger" depart="545.56" departLane="best" from="706734275#3" to="306475944"/>
    <trip id="veh201" type="veh_passenger" depart="548.29" departLane="best" from="133755126#0" to="-288926324#4"/>
    <trip id="veh202" type="veh_passenger" depart="551.02" departLane="best" from="-288926324#1" to="186254733#0"/>
    <trip id="veh203" type="veh_passenger" depart="553.74" departLane="best" from="374529112#1" to="171865792#2"/>
    <trip id="veh204" type="veh_passenger" depart="556.47" departLane="best" from="171870086#1" to="-306475940#1"/>
    <trip id="veh205" type="veh_passenger" depart="559.20" departLane="best" from="-171865792#0" to="-306475941#2"/>
    <trip id="veh207" type="veh_passenger" depart="564.65" departLane="best" from="171865797#3" to="-171867130#2"/>
    <trip id="veh208" type="veh_passenger" depart="567.38" departLane="best" from="-186263438#1" to="288926324#4"/>
    <trip id="veh210" type="veh_passenger" depart="572.84" departLane="best" from="-800669862" to="-186254736"/>
    <trip id="veh211" type="veh_passenger" depart="575.57" departLane="best" from="171867130#3" to="288926324#5"/>
    <trip id="veh212" type="veh_passenger" depart="578.29" departLane="best" from="374533525#1" to="374529112#1"/>
    <trip id="veh213" type="veh_passenger" depart="581.02" departLane="best" from="-800384378" to="-122612356#1"/>
    <trip id="veh214" type="veh_passenger" depart="583.75" departLane="best" from="-706734275#0" to="373896382#0"/>
    <trip id="veh215" type="veh_passenger" depart="586.48" departLane="best" from="374533525#0" to="800715314"/>
    <trip id="veh216" type="veh_passenger" depart="589.20" departLane="best" from="-800669878" to="306475948"/>
    <trip id="veh217" type="veh_passenger" depart="591.93" departLane="best" from="171865797#5" to="171867136#3"/>
    <trip id="veh218" type="veh_passenger" depart="594.66" departLane="best" from="122612356#1" to="-133755118#1"/>
    <trip id="veh219" type="veh_passenger" depart="597.39" departLane="best" from="-588939865" to="288926324#0"/>
    <trip id="veh220" type="veh_passenger" depart="600.12" departLane="best" from="-800610498#0" to="-171867136#3"/>
    <trip id="veh221" type="veh_passenger" depart="602.84" departLane="best" from="133755118#2" to="-171867128"/>
    <trip id="veh222" type="veh_passenger" depart="605.57" departLane="best" from="171870086#0" to="-133755118#1"/>
    <trip id="veh223" type="veh_passenger" depart="608.30" departLane="best" from="-800610495#1" to="171867128"/>
    <trip id="veh224" type="veh_passenger" depart="611.03" departLane="best" from="-133755118#1" to="186254736"/>
    <trip id="veh225" type="veh_passenger" depart="613.75" departLane="best" from="-171867130#1" to="133755118#0"/>
    <trip id="veh226" type="veh_passenger" depart="616.48" departLane="best" from="-133755126#4" to="-800384378"/>
    <trip id="veh227" type="veh_passenger" depart="619.21" departLane="best" from="-186258453" to="-374529123"/>
    <trip id="veh228" type="veh_passenger" depart="621.94" departLane="best" from="306475950" to="374533524#1"/>
    <trip id="veh229" type="veh_passenger" depart="624.67" departLane="best" from="-288926324#2" to="-171865792#2"/>
    <trip id="veh230" type="veh_passenger" depart="627.39" departLane="best" from="-122612374#3" to="171865797#3"/>
    <trip id="veh231" type="veh_passenger" depart="630.12" departLane="best" from="186258462" to="374529118#2"/>
    <trip id="veh232" type="veh_passenger" depart="632.85" departLane="best" from="186263433#0" to="373896382#1"/>
    <trip id="veh233" type="veh_passenger" depart="635.58" departLane="best" from="800669878" to="-186254733#0"/>
    <trip id="veh234" type="veh_passenger" depart="638.31" departLane="best" from="-171867128" to="236471193#0"/>
    <trip id="veh235" type="veh_passenger" depart="641.03" departLane="best" from="171867126" to="-186263433#0"/>
    <trip id="veh237" type="veh_passenger" depart="646.49" departLane="best" from="-171867136#3" to="171867136#4"/>
    <trip id="veh238" type="veh_passenger" depart="649.22" departLane="best" from="306475948" to="-171865797#8"/>
    <trip id="veh239" type="veh_passenger" depart="651.94" departLane="best" from="-171865797#6" to="-133755118#0"/>
    <trip id="veh240" type="veh_passenger" depart="654.67" departLane="best" from="-306475948" to="246989090"/>
    <trip id="veh243" type="veh_passenger" depart="662.86" departLane="best" from="288926324#3" to="171870086#1"/>
    <trip id="veh244" type="veh_passenger" depart="665.58" departLane="best" from="-171865797#4" to="374529112#3"/>
    <trip id="veh245" type="veh_passenger" depart="668.31" departLane="best" from="374533524#6" to="171867136#2"/>
    <trip id="veh246" type="veh_passenger" depart="671.04" departLane="best" from="-171865800" to="804217356#9"/>
    <trip id="veh248" type="veh_passenger" depart="676.49" departLane="best" from="158486424#0" to="-706318011"/>
    <trip id="veh249" type="veh_passenger" depart="679.22" departLane="best" from="374533524#6" to="374530997#1"/>
    <trip id="veh250" type="veh_passenger" depart="681.95" departLane="best" from="-171865797#5" to="804207591#4"/>
    <trip id="veh251" type="veh_passenger" depart="684.68" departLane="best" from="186254733#0" to="374533523#1"/>
    <trip id="veh255" type="veh_passenger" depart="695.59" departLane="best" from="171865797#3" to="133755126#3"/>
    <trip id="veh256" type="veh_passenger" depart="698.32" departLane="best" from="122612356#1" to="306475942#2"/>
    <trip id="veh258" type="veh_passenger" depart="703.77" departLane="best" from="374533523#1" to="-171865792#3"/>
    <trip id="veh260" type="veh_passenger" depart="709.23" departLane="best" from="133755118#1" to="171867138"/>
    <trip id="veh261" type="veh_passenger" depart="711.96" departLane="best" from="-800384378" to="-133755118#1"/>
    <trip id="veh262" type="veh_passenger" depart="714.68" departLane="best" from="374533524#6" to="-171870085"/>
    <trip id="veh263" type="veh_passenger" depart="717.41" departLane="best" from="-186258453" to="374529118#6"/>
    <trip id="veh265" type="veh_passenger" depart="722.87" departLane="best" from="-122612374#1" to="800669862"/>
    <trip id="veh266" type="veh_passenger" depart="725.59" departLane="best" from="-171865792#3" to="306475941#2"/>
    <trip id="veh267" type="veh_passenger" depart="728.32" departLane="best" from="133755126#4" to="373896382#4"/>
    <trip id="veh268" type="veh_passenger" depart="731.05" departLane="best" from="288926324#3" to="186258453"/>
    <trip id="veh269" type="veh_passenger" depart="733.78" departLane="best" from="133755126#5" to="374529118#5"/>
    <trip id="veh270" type="veh_passenger" depart="736.51" departLane="best" from="-171865797#1" to="-186263433#1"/>
    <trip id="veh271" type="veh_passenger" depart="739.23" departLane="best" from="288926324#3" to="-306475943#2"/>
    <trip id="veh272" type="veh_passenger" depart="741.96" departLane="best" from="171867130#3" to="133755126#0"/>
    <trip id="veh273" type="veh_passenger" depart="744.69" departLane="best" from="171865797#1" to="-804207582"/>
    <trip id="veh274" type="veh_passenger" depart="747.42" departLane="best" from="306475948" to="-374530997#0"/>
    <trip id="veh276" type="veh_passenger" depart="752.87" departLane="best" from="-288926324#2" to="-171865800"/>
    <trip id="veh277" type="veh_passenger" depart="755.60" departLane="best" from="-171902831#0" to="-171865800"/>
    <trip id="veh278" type="veh_passenger" depart="758.33" departLane="best" from="171865797#2" to="374529112#0"/>
    <trip id="veh279" type="veh_passenger" depart="761.06" departLane="best" from="-171870085" to="-186263433#0"/>
    <trip id="veh280" type="veh_passenger" depart="763.78" departLane="best" from="133755126#3" to="306475942#0"/>
    <trip id="veh281" type="veh_passenger" depart="766.51" departLane="best" from="804207591#4" to="171865792#3"/>
    <trip id="veh283" type="veh_passenger" depart="771.97" departLane="best" from="-171902831#0" to="-186263438#0"/>
    <trip id="veh284" type="veh_passenger" depart="774.69" departLane="best" from="-171870082" to="-122612374#2"/>
    <trip id="veh285" type="veh_passenger" depart="777.42" departLane="best" from="171865797#2" to="-306475940#1"/>
    <trip id="veh286" type="veh_passenger" depart="780.15" departLane="best" departSpeed="max" from="804207591#0" to="171865797#7"/>
    <trip id="veh287" type="veh_passenger" depart="782.88" departLane="best" from="288926324#5" to="-171867128"/>
    <trip id="veh288" type="veh_passenger" depart="785.61" departLane="best" from="374533525#4" to="133755126#5"/>
    <trip id="veh289" type="veh_passenger" depart="788.33" departLane="best" from="578203893" to="171867130#0"/>
    <trip id="veh290" type="veh_passenger" depart="791.06" departLane="best" from="133755118#2" to="122612374#1"/>
    <trip id="veh291" type="veh_passenger" depart="793.79" departLane="best" from="-171870085" to="-133755126#5"/>
    <trip id="veh292" type="veh_passenger" depart="796.52" departLane="best" from="800610498#1" to="133755126#1"/>
    <trip id="veh293" type="veh_passenger" depart="799.25" departLane="best" from="374530997#1" to="-800610497"/>
    <trip id="veh294" type="veh_passenger" depart="801.97" departLane="best" from="-171865779" to="171902831#0"/>
    <trip id="veh295" type="veh_passenger" depart="804.70" departLane="best" from="-133755126#5" to="-171867133"/>
    <trip id="veh296" type="veh_passenger" depart="807.43" departLane="best" from="171867126" to="-306475943#2"/>
    <trip id="veh298" type="veh_passenger" depart="812.88" departLane="best" from="374529112#1" to="171867136#4"/>
    <trip id="veh299" type="veh_passenger" depart="815.61" departLane="best" from="374529118#4" to="-186263438#0"/>
    <trip id="veh300" type="veh_passenger" depart="818.34" departLane="best" from="171865792#2" to="122612374#4"/>
    <trip id="veh301" type="veh_passenger" depart="821.07" departLane="best" from="122612374#1" to="374533525#2"/>
    <trip id="veh302" type="veh_passenger" depart="823.80" departLane="best" from="171870085" to="171867138"/>
    <trip id="veh304" type="veh_passenger" depart="829.25" departLane="best" from="186263433#2" to="-171867136#0"/>
    <trip id="veh305" type="veh_passenger" depart="831.98" departLane="best" from="-122612356#0" to="122612374#4"/>
    <trip id="veh306" type="veh_passenger" depart="834.71" departLane="best" from="171867136#0" to="-306475942#1"/>
    <trip id="veh307" type="veh_passenger" depart="837.43" departLane="best" from="-186263438#1" to="306475940#0"/>
    <trip id="veh309" type="veh_passenger" depart="842.89" departLane="best" from="288926324#2" to="800384380"/>