<routes>
    <vType id = "pkw" accel = "2.6" decel = "4.5" length = "5" sigma = "0.2" maxspeed = "50" speedDev = "0.2" vClass = "passenger" />
    <vType id = "bus" accel = "1.2" decel = "2.5" length = "15" sigma = "0.1" maxspeed = "30"  speedDev = "0.2" vClass = "bus" />
    <vType id = "tram" accel = "0.8" decel = "0.5" length = "40" sigma = "0.1" maxspeed = "15" speedDev = "0.1" vClass = "rail_urban" />
    <vType id = "bike" accel = "0.8" decel = "1.5" length = "1.8" width = "0.8" sigma = "0.5" maxspeed = "7.5" speedDev = "0.5" vClass = "bicycle" />

    <flow id = "pkw" type = "pkw" from = "beg" to = "end" begin = "0" end = "0" number = "66" departPos = "last"/>
    <flow id = "bus" type = "bus" from = "beg" to = "end" begin = "0" end = "0" number = "5" departPos = "last"/>
    <flow id = "tram" type = "tram" from = "beg" to = "end" begin = "0" end = "0" number = "2" departPos = "last"/>
    <flow id = "bike" type = "bike" from = "beg" to = "end" begin = "0" end = "0" number = "100" departPos = "last"/>
</routes>