<?xml version="1.0" encoding="UTF-8"?>

<!-- generated on Wed Nov 25 19:48:32 2020 by Eclipse SUMO duarouter Version 1.7.0
<configuration xmlns:xsi="http://www.w3.org/2001/XMLSchema-instance" xsi:noNamespaceSchemaLocation="http://sumo.dlr.de/xsd/duarouterConfiguration.xsd">

    <input>
        <net-file value="/home/shashwath/Sumo/2020-11-25-19-48-17/osm.net.xml"/>
        <route-files value="/home/shashwath/Sumo/2020-11-25-19-48-17/osm.motorcycle.trips.xml"/>
    </input>

    <output>
        <output-file value="/home/shashwath/Sumo/2020-11-25-19-48-17/osm.motorcycle.trips.xml.tmp"/>
        <write-trips value="true"/>
    </output>

    <time>
        <begin value="0"/>
        <end value="3600"/>
    </time>

    <report>
        <no-warnings value="true"/>
        <ignore-errors value="true"/>
        <no-step-log value="true"/>
    </report>

</configuration>
-->

<routes xmlns:xsi="http://www.w3.org/2001/XMLSchema-instance" xsi:noNamespaceSchemaLocation="http://sumo.dlr.de/xsd/routes_file.xsd">
    <vType id="moto_motorcycle" vClass="motorcycle"/>
    <trip id="moto0" type="moto_motorcycle" depart="0.00" departLane="best" from="800610495#1" to="-158486424#6"/>
    <trip id="moto1" type="moto_motorcycle" depart="2.35" departLane="best" from="374529120#10" to="-133637485"/>
    <trip id="moto2" type="moto_motorcycle" depart="4.69" departLane="best" from="374529118#3" to="229635038#1"/>
    <trip id="moto3" type="moto_motorcycle" depart="7.04" departLane="best" from="-706734276#3" to="-171904521"/>
    <trip id="moto4" type="moto_motorcycle" depart="9.39" departLane="best" from="-171865792#10" to="-171865792#8"/>
    <trip id="moto6" type="moto_motorcycle" depart="14.08" departLane="best" from="374529118#5" to="236471191"/>
    <trip id="moto7" type="moto_motorcycle" depart="16.43" departLane="best" from="133882611#2" to="806271841#1"/>
    <trip id="moto8" type="moto_motorcycle" depart="18.78" departLane="best" from="374533524#2" to="171902839#2"/>
    <trip id="moto9" type="moto_motorcycle" depart="21.12" departLane="best" from="229635041#0" to="-133755132#1"/>
    <trip id="moto10" type="moto_motorcycle" depart="23.47" departLane="best" from="-158486424#10" to="-229635046#0"/>
    <trip id="moto11" type="moto_motorcycle" depart="25.82" departLane="best" from="173655938#13" to="171870086#2"/>
    <trip id="moto12" type="moto_motorcycle" depart="28.16" departLane="best" from="800610480" to="-373896382#20"/>
    <trip id="moto13" type="moto_motorcycle" depart="30.51" departLane="best" from="158486424#15" to="-246982753#0"/>
    <trip id="moto14" type="moto_motorcycle" depart="32.86" departLane="best" from="-803243445#1" to="-229635038#0"/>
    <trip id="moto15" type="moto_motorcycle" depart="35.20" departLane="best" from="812556708" to="133755126#1"/>
    <trip id="moto16" type="moto_motorcycle" depart="37.55" departLane="best" from="-133882909#0" to="-800610503"/>
    <trip id="moto17" type="moto_motorcycle" depart="39.90" departLane="best" from="800715313" to="800384387#1"/>
    <trip id="moto18" type="moto_motorcycle" depart="42.24" departLane="best" from="171870086#1" to="-171904518"/>
    <trip id="moto19" type="moto_motorcycle" depart="44.59" departLane="best" from="-122612356#0" to="-588939865"/>
    <trip id="moto20" type="moto_motorcycle" depart="46.94" departLane="best" from="-135530186#14" to="286438372"/>
    <trip id="moto21" type="moto_motorcycle" depart="49.29" departLane="best" from="286440385#6" to="-171870084#1"/>
    <trip id="moto22" type="moto_motorcycle" depart="51.63" departLane="best" from="-812556707#0" to="135530186#17"/>
    <trip id="moto23" type="moto_motorcycle" depart="53.98" departLane="best" from="-706734275#3" to="171867127#1"/>
    <trip id="moto24" type="moto_motorcycle" depart="56.33" departLane="best" from="-229635043#2" to="-229635038#2"/>
    <trip id="moto25" type="moto_motorcycle" depart="58.67" departLane="best" from="-135530186#17" to="171904519#2"/>
    <trip id="moto26" type="moto_motorcycle" depart="61.02" departLane="best" from="-186263426#1" to="-171870086#1"/>
    <trip id="moto27" type="moto_motorcycle" depart="63.37" departLane="best" from="374529118#6" to="-186254736#6"/>
    <trip id="moto28" type="moto_motorcycle" depart="65.71" departLane="best" from="-803758034" to="-286438372"/>
    <trip id="moto29" type="moto_motorcycle" depart="68.06" departLane="best" from="135530186#6" to="229635058"/>
    <trip id="moto30" type="moto_motorcycle" depart="70.41" departLane="best" from="133755121" to="706734276#2"/>
    <trip id="moto31" type="moto_motorcycle" depart="72.76" departLane="best" from="800610492#1" to="-229635299#6"/>
    <trip id="moto32" type="moto_motorcycle" depart="75.10" departLane="best" from="171867131#2" to="171902839#3"/>
    <trip id="moto33" type="moto_motorcycle" depart="77.45" departLane="best" from="-186262687#2" to="229635056#0"/>
    <trip id="moto34" type="moto_motorcycle" depart="79.80" departLane="best" from="186258452" to="-306475944#1"/>
    <trip id="moto35" type="moto_motorcycle" depart="82.14" departLane="best" from="817230300" to="812556705"/>
    <trip id="moto36" type="moto_motorcycle" depart="84.49" departLane="best" from="800610483#1" to="800610482#3"/>
    <trip id="moto37" type="moto_motorcycle" depart="86.84" departLane="best" from="374533525#3" to="229635040#1"/>
    <trip id="moto38" type="moto_motorcycle" depart="89.18" departLane="best" from="186250480#1" to="-133637486#1"/>
    <trip id="moto39" type="moto_motorcycle" depart="91.53" departLane="best" from="374529123#0" to="-306475944#0"/>
    <trip id="moto40" type="moto_motorcycle" depart="93.88" departLane="best" from="186250799#0" to="803758034"/>
    <trip id="moto41" type="moto_motorcycle" depart="96.22" departLane="best" from="-171902829#0" to="-171867131#1"/>
    <trip id="moto42" type="moto_motorcycle" depart="98.57" departLane="best" from="229635056#2" to="-186262687#14"/>
    <trip id="moto43" type="moto_motorcycle" depart="100.92" departLane="best" from="-803758036" to="-286437949"/>
    <trip id="moto44" type="moto_motorcycle" depart="103.27" departLane="best" from="-122612374#4" to="290520225#1"/>
    <trip id="moto45" type="moto_motorcycle" depart="105.61" departLane="best" from="173655926#6" to="-246982749#2"/>
    <trip id="moto46" type="moto_motorcycle" depart="107.96" departLane="best" from="246982751" to="135530186#2"/>
    <trip id="moto47" type="moto_motorcycle" depart="110.31" departLane="best" from="-171904516#1" to="-171870082"/>
    <trip id="moto48" type="moto_motorcycle" depart="112.65" departLane="best" from="-373896382#0" to="800610505#3"/>
    <trip id="moto49" type="moto_motorcycle" depart="115.00" departLane="best" from="-236471188#0" to="-171865797#8"/>
    <trip id="moto50" type="moto_motorcycle" depart="117.35" departLane="best" from="374529112#1" to="800384377"/>
    <trip id="moto51" type="moto_motorcycle" depart="119.69" departLane="best" from="-133755124" to="-186258452"/>
    <trip id="moto52" type="moto_motorcycle" depart="122.04" departLane="best" from="806281523" to="133882611#2"/>
    <trip id="moto53" type="moto_motorcycle" depart="124.39" departLane="best" from="805873583#1" to="-246985854#0"/>
    <trip id="moto54" type="moto_motorcycle" depart="126.73" departLane="best" from="-171867126#8" to="-805215220"/>
    <trip id="moto55" type="moto_motorcycle" depart="129.08" departLane="best" from="236471188#1" to="-373896382#18"/>
    <trip id="moto56" type="moto_motorcycle" depart="131.43" departLane="best" from="171870084#3" to="133755126#13"/>
    <trip id="moto57" type="moto_motorcycle" depart="133.78" departLane="best" from="-800610509#0" to="171865797#1"/>
    <trip id="moto58" type="moto_motorcycle" depart="136.12" departLane="best" from="186254733#0" to="-706110059"/>
    <trip id="moto59" type="moto_motorcycle" depart="138.47" departLane="best" from="-122612356#0" to="-288926324#3"/>
    <trip id="moto60" type="moto_motorcycle" depart="140.82" departLane="best" from="171904521" to="-706734274#1"/>
    <trip id="moto61" type="moto_motorcycle" depart="143.16" departLane="best" from="374530997#0" to="246985864#2"/>
    <trip id="moto63" type="moto_motorcycle" depart="147.86" departLane="best" from="-186258455#0" to="186276679#0"/>
    <trip id="moto64" type="moto_motorcycle" depart="150.20" departLane="best" from="186250480#5" to="-133637484#2"/>
    <trip id="moto65" type="moto_motorcycle" depart="152.55" departLane="best" from="246985864#2" to="288926324#5"/>
    <trip id="moto66" type="moto_motorcycle" depart="154.90" departLane="best" from="-236471188#0" to="706734274#1"/>
    <trip id="moto67" type="moto_motorcycle" depart="157.25" departLane="best" from="-806271849" to="373896382#9"/>
    <trip id="moto68" type="moto_motorcycle" depart="159.59" departLane="best" from="800610494" to="171902831#2"/>
    <trip id="moto69" type="moto_motorcycle" depart="161.94" departLane="best" from="229635059#0" to="133755125#3"/>
    <trip id="moto70" type="moto_motorcycle" depart="164.29" departLane="best" from="-812556705" to="-245441809#0"/>
    <trip id="moto71" type="moto_motorcycle" depart="166.63" departLane="best" from="171867126#2" to="186263438#1"/>
    <trip id="moto72" type="moto_motorcycle" depart="168.98" departLane="best" from="-800384380" to="246989083#2"/>
    <trip id="moto73" type="moto_motorcycle" depart="171.33" departLane="best" from="706734276#3" to="805215216"/>
    <trip id="moto74" type="moto_motorcycle" depart="173.67" departLane="best" from="135530186#10" to="171870076#1"/>
    <trip id="moto75" type="moto_motorcycle" depart="176.02" departLane="best" from="-229635038#3" to="-229635038#1"/>
    <trip id="moto76" type="moto_motorcycle" depart="178.37" departLane="best" from="-805231222" to="-133755125#8"/>
    <trip id="moto77" type="moto_motorcycle" depart="180.71" departLane="best" from="-706734275#0" to="186262687#1"/>
    <trip id="moto78" type="moto_motorcycle" depart="183.06" departLane="best" from="171902842#1" to="-133755125#5"/>
    <trip id="moto79" type="moto_motorcycle" depart="185.41" departLane="best" from="-236471193#0" to="-158486424#14"/>
    <trip id="moto80" type="moto_motorcycle" depart="187.76" departLane="best" from="173655938#4" to="306475944#0"/>
    <trip id="moto81" type="moto_motorcycle" depart="190.10" departLane="best" from="-171867126#8" to="-133755125#3"/>
    <trip id="moto82" type="moto_motorcycle" depart="192.45" departLane="best" from="-373896382#15" to="186258462#1"/>
    <trip id="moto83" type="moto_motorcycle" depart="194.80" departLane="best" from="229635054#1" to="-135530186#4"/>
    <trip id="moto85" type="moto_motorcycle" depart="199.49" departLane="best" from="-171865797#6" to="290646812#0"/>
    <trip id="moto86" type="moto_motorcycle" depart="201.84" departLane="best" from="706734275#1" to="171867138#1"/>
    <trip id="moto87" type="moto_motorcycle" depart="204.18" departLane="best" from="306475945" to="-715685826#2"/>
    <trip id="moto88" type="moto_motorcycle" depart="206.53" departLane="best" from="133755125#5" to="-709859523#0"/>
    <trip id="moto89" type="moto_motorcycle" depart="208.88" departLane="best" from="229635043#0" to="-805231221"/>
    <trip id="moto90" type="moto_motorcycle" depart="211.22" departLane="best" from="-246985864#0" to="374529118#7"/>
    <trip id="moto91" type="moto_motorcycle" depart="213.57" departLane="best" from="-158486424#3" to="229635059#2"/>
    <trip id="moto92" type="moto_motorcycle" depart="215.92" departLane="best" from="229635040#0" to="-246985864#2"/>
    <trip id="moto93" type="moto_motorcycle" depart="218.27" departLane="best" from="-236471191" to="-171867136#3"/>
    <trip id="moto94" type="moto_motorcycle" depart="220.61" departLane="best" from="-186250792#1" to="-133637883#2"/>
    <trip id="moto95" type="moto_motorcycle" depart="222.96" departLane="best" from="229635038#0" to="-171870081#0"/>
    <trip id="moto96" type="moto_motorcycle" depart="225.31" departLane="best" from="800384387#5" to="171865792#3"/>
    <trip id="moto97" type="moto_motorcycle" depart="227.65" departLane="best" from="803758036" to="-817230300"/>
    <trip id="moto98" type="moto_motorcycle" depart="230.00" departLane="best" from="374532416#2" to="-803243446"/>
    <trip id="moto99" type="moto_motorcycle" depart="232.35" departLane="best" from="158486424#17" to="-306475946#4"/>
    <trip id="moto100" type="moto_motorcycle" depart="234.69" departLane="best" from="171902841#1" to="171870086#2"/>
    <trip id="moto101" type="moto_motorcycle" depart="237.04" departLane="best" from="246982749#1" to="804217356#4"/>
    <trip id="moto103" type="moto_motorcycle" depart="241.74" departLane="best" from="186250794#2" to="-173655926#1"/>
    <trip id="moto104" type="moto_motorcycle" depart="244.08" departLane="best" from="-173655938#6" to="-135530186#23"/>
    <trip id="moto105" type="moto_motorcycle" depart="246.43" departLane="best" from="171867131#0" to="-290646812#1"/>
    <trip id="moto106" type="moto_motorcycle" depart="248.78" departLane="best" from="-229635045#1" to="229635042#1"/>
    <trip id="moto107" type="moto_motorcycle" depart="251.12" departLane="best" from="186250796" to="803758026#1"/>
    <trip id="moto108" type="moto_motorcycle" depart="253.47" departLane="best" from="374532420#0" to="-135530186#18"/>
    <trip id="moto109" type="moto_motorcycle" depart="255.82" departLane="best" from="-133755129#0" to="-805215216"/>
    <trip id="moto110" type="moto_motorcycle" depart="258.16" departLane="best" from="-809425537" to="173655938#6"/>
    <trip id="moto112" type="moto_motorcycle" depart="262.86" departLane="best" from="186254736#8" to="714381033"/>
    <trip id="moto113" type="moto_motorcycle" depart="265.20" departLane="best" from="-706110059" to="186263433#0"/>
    <trip id="moto114" type="moto_motorcycle" depart="267.55" departLane="best" from="374529120#5" to="135530186#17"/>
    <trip id="moto115" type="moto_motorcycle" depart="269.90" departLane="best" from="135530186#16" to="803758016"/>
    <trip id="moto116" type="moto_motorcycle" depart="272.25" departLane="best" from="-171867137#0" to="806271841#1"/>
    <trip id="moto117" type="moto_motorcycle" depart="274.59" departLane="best" from="-173655926#3" to="135530186#19"/>
    <trip id="moto118" type="moto_motorcycle" depart="276.94" departLane="best" from="374533525#0" to="133755118#0"/>
    <trip id="moto119" type="moto_motorcycle" depart="279.29" departLane="best" from="806281522#1" to="-229635299#1"/>
    <trip id="moto120" type="moto_motorcycle" depart="281.63" departLane="best" from="-803758023" to="803758027"/>
    <trip id="moto121" type="moto_motorcycle" depart="283.98" departLane="best" from="171867126#8" to="817230302"/>
    <trip id="moto122" type="moto_motorcycle" depart="286.33" departLane="best" from="246985853" to="229635041#1"/>
    <trip id="moto123" type="moto_motorcycle" depart="288.67" departLane="best" from="186250799#0" to="374532416#11"/>
    <trip id="moto124" type="moto_motorcycle" depart="291.02" departLane="best" from="171867128" to="800384386"/>
    <trip id="moto125" type="moto_motorcycle" depart="293.37" departLane="best" from="-806371404" to="806271838"/>
    <trip id="moto126" type="moto_motorcycle" depart="295.71" departLane="best" from="-706734276#0" to="186263426#1"/>
    <trip id="moto127" type="moto_motorcycle" depart="298.06" departLane="best" from="706734276#1" to="715685821"/>
    <trip id="moto128" type="moto_motorcycle" depart="300.41" departLane="best" from="-135530186#12" to="171904519#2"/>
    <trip id="moto130" type="moto_motorcycle" depart="305.10" departLane="best" from="246985856" to="-805215219"/>
    <trip id="moto131" type="moto_motorcycle" depart="307.45" departLane="best" from="800384387#1" to="171902839#4"/>
    <trip id="moto132" type="moto_motorcycle" depart="309.80" departLane="best" from="-133637487#2" to="374529118#1"/>
    <trip id="moto133" type="moto_motorcycle" depart="312.14" departLane="best" from="173655929#0" to="-803758037"/>
    <trip id="moto134" type="moto_motorcycle" depart="314.49" departLane="best" from="133055393#0" to="-229635054#2"/>
    <trip id="moto135" type="moto_motorcycle" depart="316.84" departLane="best" from="171865792#11" to="171865792#7"/>
    <trip id="moto136" type="moto_motorcycle" depart="319.18" departLane="best" from="809425538" to="-306475941#2"/>
    <trip id="moto137" type="moto_motorcycle" depart="321.53" departLane="best" from="-133755134#0" to="171870084#3"/>
    <trip id="moto139" type="moto_motorcycle" depart="326.23" departLane="best" from="-805873583#1" to="171865797#4"/>
    <trip id="moto140" type="moto_motorcycle" depart="328.57" departLane="best" from="236471195#0" to="-171865787"/>
    <trip id="moto141" type="moto_motorcycle" depart="330.92" departLane="best" from="-186250480#1" to="-171870086#1"/>
    <trip id="moto142" type="moto_motorcycle" depart="333.27" departLane="best" from="374533524#4" to="-245441027#4"/>
    <trip id="moto143" type="moto_motorcycle" depart="335.61" departLane="best" from="374529118#4" to="246985856"/>
    <trip id="moto144" type="moto_motorcycle" depart="337.96" departLane="best" from="-706734276#0" to="-171867131#1"/>
    <trip id="moto145" type="moto_motorcycle" depart="340.31" departLane="best" from="229635299#5" to="806281522#0"/>
    <trip id="moto146" type="moto_motorcycle" depart="342.65" departLane="best" from="-800610483#1" to="373896382#1"/>
    <trip id="moto147" type="moto_motorcycle" depart="345.00" departLane="best" from="374532416#2" to="803758035#1"/>
    <trip id="moto148" type="moto_motorcycle" depart="347.35" departLane="best" from="-171865797#0" to="800610487#1"/>
    <trip id="moto149" type="moto_motorcycle" depart="349.69" departLane="best" from="804207591#5" to="-803758029#1"/>
    <trip id="moto150" type="moto_motorcycle" depart="352.04" departLane="best" from="246982753#1" to="-171904519#2"/>
    <trip id="moto151" type="moto_motorcycle" depart="354.39" departLane="best" from="133637487#2" to="-803758011#2"/>
    <trip id="moto152" type="moto_motorcycle" depart="356.74" departLane="best" from="-800610486" to="-806271835#1"/>
    <trip id="moto153" type="moto_motorcycle" depart="359.08" departLane="best" from="804258386" to="709873268"/>
    <trip id="moto154" type="moto_motorcycle" depart="361.43" departLane="best" from="-171865797#2" to="186262687#8"/>
    <trip id="moto155" type="moto_motorcycle" depart="363.78" departLane="best" from="133882910#0" to="806271849"/>
    <trip id="moto156" type="moto_motorcycle" depart="366.12" departLane="best" from="-186254736#5" to="-171867137#1"/>
    <trip id="moto157" type="moto_motorcycle" depart="368.47" departLane="best" from="186250797#1" to="173655929#4"/>
    <trip id="moto158" type="moto_motorcycle" depart="370.82" departLane="best" from="171867136#1" to="-133755118#3"/>
    <trip id="moto159" type="moto_motorcycle" depart="373.16" departLane="best" from="-171870076#1" to="158486424#3"/>
    <trip id="moto160" type="moto_motorcycle" depart="375.51" departLane="best" from="-135530186#12" to="286440385#4"/>
    <trip id="moto161" type="moto_motorcycle" depart="377.86" departLane="best" from="-186262687#8" to="-186263433#2"/>
    <trip id="moto162" type="moto_motorcycle" depart="380.20" departLane="best" from="-122612374#2" to="714381034"/>
    <trip id="moto163" type="moto_motorcycle" depart="382.55" departLane="best" from="-171902841#1" to="-171870084#3"/>
    <trip id="moto164" type="moto_motorcycle" depart="384.90" departLane="best" from="246982753#0" to="133755132#3"/>
    <trip id="moto166" type="moto_motorcycle" depart="389.59" departLane="best" from="306475946#0" to="800384382"/>
    <trip id="moto167" type="moto_motorcycle" depart="391.94" departLane="best" from="806271835#0" to="-133882615#1"/>
    <trip id="moto168" type="moto_motorcycle" depart="394.29" departLane="best" from="-158486424#12" to="171870086#0"/>
    <trip id="moto169" type="moto_motorcycle" depart="396.63" departLane="best" from="-133882910#0" to="-246989092#0"/>
    <trip id="moto170" type="moto_motorcycle" depart="398.98" departLane="best" from="171904523" to="135530186#14"/>
    <trip id="moto171" type="moto_motorcycle" depart="401.33" departLane="best" from="133882604#1" to="-806271844"/>
    <trip id="moto172" type="moto_motorcycle" depart="403.67" departLane="best" from="803758010" to="-135530186#10"/>
    <trip id="moto173" type="moto_motorcycle" depart="406.02" departLane="best" from="374529120#14" to="135530186#8"/>
    <trip id="moto174" type="moto_motorcycle" depart="408.37" departLane="best" from="171867126#7" to="158486424#15"/>
    <trip id="moto175" type="moto_motorcycle" depart="410.72" departLane="best" from="171867138#1" to="-800384380"/>
    <trip id="moto177" type="moto_motorcycle" depart="415.41" departLane="best" from="-171867126#8" to="706318005"/>
    <trip id="moto178" type="moto_motorcycle" depart="417.76" departLane="best" from="374530997#0" to="171902835#0"/>
    <trip id="moto179" type="moto_motorcycle" depart="420.10" departLane="best" from="803758018" to="374533524#2"/>
    <trip id="moto180" type="moto_motorcycle" depart="422.45" departLane="best" from="800384386" to="158486424#6"/>
    <trip id="moto181" type="moto_motorcycle" depart="424.80" departLane="best" from="186258455#2" to="-246989083#0"/>
    <trip id="moto182" type="moto_motorcycle" depart="427.14" departLane="best" from="186250797#0" to="133637484#3"/>
    <trip id="moto183" type="moto_motorcycle" depart="429.49" departLane="best" from="-806271834" to="-246989083#2"/>
    <trip id="moto184" type="moto_motorcycle" depart="431.84" departLane="best" from="246989087#0" to="-171867130#3"/>
    <trip id="moto185" type="moto_motorcycle" depart="434.18" departLane="best" from="-800669887" to="171867137#0"/>
    <trip id="moto187" type="moto_motorcycle" depart="438.88" departLane="best" from="374533525#2" to="374529118#3"/>
    <trip id="moto188" type="moto_motorcycle" depart="441.23" departLane="best" from="171865792#8" to="171865792#2"/>
    <trip id="moto189" type="moto_motorcycle" depart="443.57" departLane="best" from="-646246743" to="373896382#9"/>
    <trip id="moto190" type="moto_motorcycle" depart="445.92" departLane="best" from="171902839#1" to="374533525#0"/>
    <trip id="moto191" type="moto_motorcycle" depart="448.27" departLane="best" from="-800669888" to="-373896382#11"/>
    <trip id="moto192" type="moto_motorcycle" depart="450.61" departLane="best" from="-171867130#3" to="133755126#10"/>
    <trip id="moto193" type="moto_motorcycle" depart="452.96" departLane="best" from="236471187#1" to="374530997#1"/>
    <trip id="moto194" type="moto_motorcycle" depart="455.31" departLane="best" from="171870076#0" to="286438372"/>
    <trip id="moto195" type="moto_motorcycle" depart="457.65" departLane="best" from="186250480#4" to="-186250480#3"/>
    <trip id="moto196" type="moto_motorcycle" depart="460.00" departLane="best" from="171904516#6" to="-171904516#6"/>
    <trip id="moto197" type="moto_motorcycle" depart="462.35" departLane="best" from="-306475946#3" to="-246989087#0"/>
    <trip id="moto198" type="moto_motorcycle" depart="464.69" departLane="best" from="-373896382#13" to="-806271842#0"/>
    <trip id="moto199" type="moto_motorcycle" depart="467.04" departLane="best" from="709859523#1" to="171902835#3"/>
    <trip id="moto200" type="moto_motorcycle" depart="469.39" departLane="best" from="800610502" to="-806271840#1"/>
    <trip id="moto201" type="moto_motorcycle" depart="471.74" departLane="best" from="374529120#11" to="173655938#8"/>
    <trip id="moto202" type="moto_motorcycle" depart="474.08" departLane="best" from="-374530997#1" to="-812556707#1"/>
    <trip id="moto203" type="moto_motorcycle" depart="476.43" departLane="best" from="-229635299#8" to="-805231224"/>
    <trip id="moto204" type="moto_motorcycle" depart="478.78" departLane="best" from="-286440385#2" to="-803758012"/>
    <trip id="moto205" type="moto_motorcycle" depart="481.12" departLane="best" from="-706734275#3" to="171867136#2"/>
    <trip id="moto206" type="moto_motorcycle" depart="483.47" departLane="best" from="-133882910#0" to="-171865792#2"/>
    <trip id="moto208" type="moto_motorcycle" depart="488.16" departLane="best" from="-800669877" to="171867131#2"/>
    <trip id="moto209" type="moto_motorcycle" depart="490.51" departLane="best" from="374533524#1" to="245441809#1"/>
    <trip id="moto210" type="moto_motorcycle" depart="492.86" departLane="best" from="173655938#10" to="-803758035#1"/>
    <trip id="moto211" type="moto_motorcycle" depart="495.20" departLane="best" from="-800610481" to="-800610482#0"/>
    <trip id="moto212" type="moto_motorcycle" depart="497.55" departLane="best" from="-171865797#5" to="290520225#1"/>
    <trip id="moto213" type="moto_motorcycle" depart="499.90" departLane="best" from="-133755126#8" to="-706734275#1"/>
    <trip id="moto214" type="moto_motorcycle" depart="502.25" departLane="best" from="374529120#0" to="-173655932#1"/>
    <trip id="moto215" type="moto_motorcycle" depart="504.59" departLane="best" from="133882609#2" to="-373896382#10"/>
    <trip id="moto216" type="moto_motorcycle" depart="506.94" departLane="best" from="706734275#2" to="-288926324#0"/>
    <trip id="moto217" type="moto_motorcycle" depart="509.29" departLane="best" from="800669862" to="-171904516#0"/>
    <trip id="moto218" type="moto_motorcycle" depart="511.63" departLane="best" from="-171902835#1" to="-288926324#3"/>
    <trip id="moto219" type="moto_motorcycle" depart="513.98" departLane="best" from="374533524#3" to="186276679#0"/>
    <trip id="moto220" type="moto_motorcycle" depart="516.33" departLane="best" from="-171902835#3" to="229635041#2"/>
    <trip id="moto221" type="moto_motorcycle" depart="518.67" departLane="best" from="374533525#5" to="135530186#15"/>
    <trip id="moto222" type="moto_motorcycle" depart="521.02" departLane="best" from="236471187#1" to="133755132#6"/>
    <trip id="moto223" type="moto_motorcycle" depart="523.37" departLane="best" from="-171867128" to="-288926324#5"/>
    <trip id="moto224" type="moto_motorcycle" depart="525.72" departLane="best" from="800669862" to="171867136#0"/>
    <trip id="moto225" type="moto_motorcycle" depart="528.06" departLane="best" from="-229635059#2" to="-171902841#0"/>
    <trip id="moto226" type="moto_motorcycle" depart="530.41" departLane="best" from="133755132#3" to="133755125#7"/>
    <trip id="moto227" type="moto_motorcycle" depart="532.76" departLane="best" from="306475949" to="-713329449"/>
    <trip id="moto228" type="moto_motorcycle" depart="535.10" departLane="best" from="236471195#1" to="171904516#7"/>
    <trip id="moto229" type="moto_motorcycle" depart="537.45" departLane="best" from="-186250480#0" to="306475942#2"/>
    <trip id="moto231" type="moto_motorcycle" depart="542.14" departLane="best" from="246989083#2" to="-186254736#7"/>
    <trip id="moto232" type="moto_motorcycle" depart="544.49" departLane="best" from="800384379" to="-706318005"/>
    <trip id="moto233" type="moto_motorcycle" depart="546.84" departLane="best" from="800610499" to="-800610509#2"/>
    <trip id="moto234" type="moto_motorcycle" depart="549.18" departLane="best" from="133637887#1" to="803758011#2"/>
    <trip id="moto235" type="moto_motorcycle" depart="551.53" departLane="best" from="236471187#1" to="-158486424#1"/>
    <trip id="moto236" type="moto_motorcycle" depart="553.88" departLane="best" from="171870076#0" to="374532416#2"/>
    <trip id="moto237" type="moto_motorcycle" depart="556.23" departLane="best" from="800384387#0" to="-800384382"/>
    <trip id="moto238" type="moto_motorcycle" depart="558.57" departLane="best" from="-135530186#23" to="173655926#6"/>
    <trip id="moto239" type="moto_motorcycle" depart="560.92" departLane="best" from="-800610482#1" to="373896382#9"/>
    <trip id="moto240" type="moto_motorcycle" depart="563.27" departLane="best" from="186262687#1" to="805215215"/>
    <trip id="moto241" type="moto_motorcycle" depart="565.61" departLane="best" from="-171902839#3" to="171870085#1"/>
    <trip id="moto243" type="moto_motorcycle" depart="570.31" departLane="best" from="-800610483#2" to="-800610505#1"/>
    <trip id="moto244" type="moto_motorcycle" depart="572.65" departLane="best" from="158486424#8" to="171870084#1"/>
    <trip id="moto245" type="moto_motorcycle" depart="575.00" departLane="best" from="-236471188#0" to="-171867130#2"/>
    <trip id="moto246" type="moto_motorcycle" depart="577.35" departLane="best" from="245441027#2" to="133755118#1"/>
    <trip id="moto247" type="moto_motorcycle" depart="579.69" departLane="best" from="-800610510" to="158486424#15"/>
    <trip id="moto248" type="moto_motorcycle" depart="582.04" departLane="best" from="-246982749#2" to="-246982749#0"/>
    <trip id="moto249" type="moto_motorcycle" depart="584.39" departLane="best" from="800610505#3" to="-806271837#2"/>
    <trip id="moto250" type="moto_motorcycle" depart="586.74" departLane="best" from="-158486424#7" to="186262687#14"/>
    <trip id="moto251" type="moto_motorcycle" depart="589.08" departLane="best" from="803758015#1" to="173655926#7"/>
    <trip id="moto252" type="moto_motorcycle" depart="591.43" departLane="best" from="-171867137#0" to="-186262687#1"/>
    <trip id="moto253" type="moto_motorcycle" depart="593.78" departLane="best" from="135530186#2" to="171902829#1"/>
    <trip id="moto254" type="moto_motorcycle" depart="596.12" departLane="best" from="133755132#3" to="288926324#4"/>
    <trip id="moto255" type="moto_motorcycle" depart="598.47" departLane="best" from="374532416#4" to="-135530186#21"/>
    <trip id="moto256" type="moto_motorcycle" depart="600.82" departLane="best" from="-543878957" to="229635045#0"/>
    <trip id="moto257" type="moto_motorcycle" depart="603.16" departLane="best" from="800610499" to="706318010"/>