<?xml version="1.0" encoding="UTF-8"?>

<!-- generated on Wed Nov 25 19:48:24 2020 by Eclipse SUMO polyconvert Version 1.7.0
<configuration xmlns:xsi="http://www.w3.org/2001/XMLSchema-instance" xsi:noNamespaceSchemaLocation="http://sumo.dlr.de/xsd/polyconvertConfiguration.xsd">

    <input>
        <net-file value="osm.net.xml"/>
        <osm-files value="osm_bbox.osm.xml"/>
        <osm.keep-full-type value="true"/>
        <type-file value="/opt/sumo-1.7.0/data/typemap/osmPolyconvert.typ.xml"/>
    </input>

    <output>
        <output-file value="osm.poly.xml"/>
    </output>

    <processing>
        <poi-layer-offset value="5"/>
    </processing>

    <report>
        <verbose value="true"/>
    </report>

</configuration>
-->

<additional xmlns:xsi="http://www.w3.org/2001/XMLSchema-instance" xsi:noNamespaceSchemaLocation="http://sumo.dlr.de/xsd/additional_file.xsd">
    <location netOffset="-475063.60,-1472685.45" convBoundary="-854.84,-0.00,11777.52,5425.74" origBoundary="74.761810,13.321390,74.878474,13.370446" projParameter="+proj=utm +zone=43 +ellps=WGS84 +datum=WGS84 +units=m +no_defs"/>

    <poly id="120510755" type="natural.water" color="181,209,209" fill="1" layer="-4.00" shape="1507.629274,2362.192424 1544.340517,2437.394819 1594.088873,2499.093963 1692.763845,2549.603380 1733.872109,2563.469028 1808.185404,2568.470009 1884.164399,2583.832048 1922.557985,2576.566567 1948.602685,2564.877041 1988.335628,2490.095342 2020.228504,2428.005057 2026.892353,2407.219527 2024.184142,2393.420210 1972.876901,2344.052397 1896.772339,2283.978693 1878.839824,2259.409921 1868.732809,2230.211786 1872.395075,2169.417356 1865.825870,2148.985971 1832.291183,2127.759378 1761.124676,2106.355111 1688.484422,2109.016677 1618.238375,2087.777875 1528.309834,2084.969608 1491.705976,2096.259553 1492.328602,2201.772891 1502.954512,2266.724175 1507.629274,2362.192424"/>
    <poly id="133755116" type="amenity.college" color="237,199,199" fill="1" layer="-1.00" shape="1909.005293,3454.718070 1927.396369,3497.257358 1951.918068,3554.389298 1973.983376,3600.973071 1991.771537,3635.152312 2064.798604,3659.209721 2190.934808,3677.327854 2221.176487,3623.013617 2251.754367,3556.335170 2185.317054,3526.609462 2060.358654,3480.931308 1969.778757,3445.343307 1909.005293,3454.718070"/>
    <poly id="133882911" type="tourism.hotel" color="207,245,201" fill="1" layer="-2.00" shape="4017.039213,3693.571172 4018.940775,3674.183278 4041.886554,3674.165420 4039.607154,3695.068687 4017.039213,3693.571172"/>
    <poly id="135530187" type="landuse.industrial" color="209,209,204" fill="1" layer="-3.00" shape="1502.679453,1155.450497 1519.619311,1058.559019 1640.069385,1061.495697 1653.270774,986.426933 2008.539310,1037.844779 2121.025932,1279.155737 2128.212987,1325.796443 2140.590120,1477.935480 2178.365934,1480.944718 2161.143665,1643.238867 2161.153064,1884.545988 1905.546107,1704.800706 1788.689637,1784.503631 1706.413712,1791.033016 1686.704809,1528.553839 1448.435533,1442.699750 1512.590595,1344.384691 1519.792051,1319.274516 1502.679453,1155.450497"/>
    <poly id="171870078" type="building.yes" color="255,230,230" fill="1" layer="-1.00" shape="1614.712503,3553.065316 1616.473197,3572.969999 1624.913669,3591.154739 1638.285145,3613.935750 1654.281963,3629.802614 1665.323820,3638.441189 1672.298953,3640.171411 1670.816922,3604.385750 1664.411951,3598.330963 1662.374244,3583.613191 1653.365065,3583.908532 1648.124325,3571.792404 1646.661273,3557.936738 1646.659279,3555.636467 1614.712503,3553.065316"/>
    <poly id="171870079" type="building.yes" color="255,230,230" fill="1" layer="-1.00" shape="1612.080946,3540.371862 1622.253557,3545.549705 1623.135937,3551.609275 1629.524842,3551.603731 1630.389138,3549.302708 1635.034880,3549.586212 1643.735673,3530.811533 1652.743623,3529.078519 1649.816200,3512.337722 1660.567821,3510.890733 1660.268941,3503.381928 1658.230152,3499.922225 1654.447945,3496.464034 1656.772353,3492.126890 1652.417730,3490.405459 1649.517898,3493.006839 1646.862485,3490.255448 1644.024307,3489.030359 1640.645117,3488.292336 1637.926831,3487.962923 1634.407415,3487.855386 1629.578170,3488.257699 1626.168231,3489.521384 1622.466263,3491.183447 1619.306266,3493.464345 1616.471275,3495.910846 1614.297217,3498.799134 1612.415726,3501.908348 1610.278438,3509.728921 1610.067943,3516.729455 1610.982535,3522.468285 1612.252522,3525.961828 1613.814087,3528.537220 1615.852122,3531.123259 1612.080946,3540.371862"/>
    <poly id="171870089" type="amenity.college" color="237,199,199" fill="1" layer="-1.00" shape="2366.098997,2943.360197 2360.865348,2874.986820 2269.031780,2600.281255 2281.763878,2365.587624 2452.653372,2178.237578 2518.252795,2225.493164 2594.415504,2239.762221 2636.901981,2204.924313 2748.806515,2238.992956 2838.273019,2378.826541 2821.397886,2480.063347 3053.452863,2531.496814 3028.159856,2655.599276 2964.216646,2949.599462 2682.144173,2895.576133 2616.418841,3150.761662 2593.895529,3307.784963 2591.017909,3337.226409 2695.008297,3352.722250 2652.275850,3663.294352 2581.134145,3652.991182 2440.406806,3538.194590 2444.535481,3528.790982 2411.084164,3513.999950 2430.797446,3468.387169 2442.328657,3363.317014 2450.960076,3273.842488 2492.126303,3177.417844 2520.009089,3097.869321 2547.731094,2981.107448 2366.098997,2943.360197"/>
    <poly id="171870091" type="leisure.sports_centre" color="207,245,201" fill="1" layer="-2.00" shape="2133.358651,3791.583007 2156.607979,3804.834083 2161.832541,3798.194250 2178.971871,3808.287652 2174.916049,3814.052831 2187.571112,3822.690250 2192.211667,3816.913520 2208.506768,3827.505311 2213.935037,3831.249721 2219.148087,3823.791542 2194.661450,3807.113168 2207.131620,3789.209143 2160.349706,3760.683365 2149.610892,3777.137212 2142.926978,3773.968950 2136.262960,3781.483670 2132.782043,3788.409562 2133.358651,3791.583007"/>
    <poly id="171871047" type="natural.water" color="181,209,209" fill="1" layer="-4.00" shape="2159.353383,3275.249302 2175.625020,3283.308584 2191.897143,3291.954001 2198.323235,3335.819617 2208.199529,3336.386329 2226.783690,3325.986212 2237.212448,3301.149944 2236.997975,3290.821019 2236.613653,3271.711392 2243.567882,3248.625385 2256.327797,3227.248625 2256.317080,3214.552902 2247.595034,3208.787468 2224.348167,3198.997775 2213.889107,3188.036091 2210.966883,3177.068035 2190.053540,3173.624263 2191.238197,3191.516722 2195.894504,3204.219571 2176.153547,3216.932017 2161.649274,3237.149100 2153.542801,3267.745167 2159.353383,3275.249302"/>
    <poly id="171902840" type="leisure.park" color="207,245,201" fill="1" layer="-2.00" shape="2282.215668,2580.452424 2374.249279,2538.815324 2333.816438,2464.964156 2322.781600,2464.973435 2280.392411,2485.788973 2280.146236,2540.619671 2276.099084,2569.774591 2282.215668,2580.452424"/>
    <poly id="171902845" type="leisure.park" color="207,245,201" fill="1" layer="-2.00" shape="2404.393260,2805.179090 2452.035113,2811.487056 2393.840034,2694.940821 2357.765591,2626.858753 2323.505575,2643.332276 2356.679616,2713.440532 2382.569819,2762.775089 2404.393260,2805.179090"/>
    <poly id="186254016" type="building.yes" color="255,230,230" fill="1" layer="-1.00" shape="1684.940037,3332.100816 1684.359223,3324.138836 1673.498654,3324.911309 1670.824561,3288.098200 1679.746912,3287.460112 1679.187954,3279.730353 1720.432174,3276.764048 1721.571915,3292.444730 1730.039477,3291.829170 1731.475140,3311.623546 1723.137511,3312.216875 1724.375892,3329.268789 1684.940037,3332.100816"/>
    <poly id="186254017" type="building.yes" color="255,230,230" fill="1" layer="-1.00" shape="1674.990925,3360.011296 1688.633908,3358.594994 1694.704631,3416.328803 1681.061676,3417.745103 1674.990925,3360.011296"/>
    <poly id="186254018" type="building.yes" color="255,230,230" fill="1" layer="-1.00" shape="1686.639169,3443.585170 1716.518939,3397.376925 1694.111370,3356.422690 1711.245268,3347.173605 1735.678285,3388.701173 1783.314316,3389.246206 1784.197272,3408.576584 1733.951566,3408.044862 1705.240521,3453.378416 1686.639169,3443.585170"/>
    <poly id="186254019" type="building.yes" color="255,230,230" fill="1" layer="-1.00" shape="1613.867538,3303.209944 1607.306514,3192.349126 1643.700279,3190.216343 1650.261163,3301.088226 1613.867538,3303.209944"/>
    <poly id="186254165" type="building.yes" color="255,230,230" fill="1" layer="-1.00" shape="1877.788491,3482.668830 1897.830639,3480.627837 1918.200587,3532.565576 1900.787916,3544.988705 1906.027068,3555.379677 1934.468934,3536.875712 1907.975323,3465.899606 1876.618925,3469.974098 1877.788491,3482.668830"/>
    <poly id="186254168" type="building.yes" color="255,230,230" fill="1" layer="-1.00" shape="1619.398008,3224.852101 1634.936747,3224.186140 1633.975375,3201.969436 1618.436623,3202.635397 1619.398008,3224.852101"/>
    <poly id="186254169" type="building.yes" color="255,230,230" fill="1" layer="-1.00" shape="1584.277395,3346.177761 1616.760798,3342.920318 1611.878657,3294.895299 1598.549611,3296.233954 1602.175646,3331.796563 1583.010438,3333.726423 1584.277395,3346.177761"/>
    <poly id="186254171" type="building.yes" color="255,230,230" fill="1" layer="-1.00" shape="1644.303318,3373.695753 1640.111452,3322.418784 1653.559823,3321.334403 1657.751663,3372.611374 1644.303318,3373.695753"/>
    <poly id="186254173" type="building.yes" color="255,230,230" fill="1" layer="-1.00" shape="1625.506160,3288.082185 1624.628086,3274.513549 1639.441336,3273.925633 1640.319144,3287.195676 1625.506160,3288.082185"/>
    <poly id="186254175" type="building.yes" color="255,230,230" fill="1" layer="-1.00" shape="1623.620719,3261.697037 1622.625700,3238.153282 1637.698833,3237.531962 1638.693828,3261.064659 1623.620719,3261.697037"/>
    <poly id="186254177" type="building.yes" color="255,230,230" fill="1" layer="-1.00" shape="1592.923813,3451.728451 1590.925343,3419.913429 1618.569560,3418.197394 1616.439311,3384.237038 1653.363290,3381.948977 1655.559451,3417.048355 1627.038145,3418.809349 1628.959802,3449.507480 1592.923813,3451.728451"/>
    <poly id="186254726" type="building.yes" color="255,230,230" fill="1" layer="-1.00" shape="1844.503017,3736.822300 1765.270719,3662.032120 1816.411540,3608.539880 1807.297246,3599.932761 1747.696090,3662.279525 1836.042679,3745.676780 1844.503017,3736.822300"/>
    <poly id="186254727" type="building.yes" color="255,230,230" fill="1" layer="-1.00" shape="1863.273788,3666.813721 1875.628926,3679.067548 1888.255131,3666.504740 1875.899984,3654.239849 1863.273788,3666.813721"/>
    <poly id="186254728" type="building.yes" color="255,230,230" fill="1" layer="-1.00" shape="1845.688152,3729.831989 1823.363531,3709.226144 1853.850493,3676.620096 1877.898240,3698.828043 1870.444178,3706.796927 1857.071086,3694.455505 1840.864735,3711.776779 1852.514713,3722.527177 1845.688152,3729.831989"/>
    <poly id="186254729" type="building.yes" color="255,230,230" fill="1" layer="-1.00" shape="1834.813905,3638.969489 1847.862974,3652.240135 1859.753708,3640.695375 1846.693810,3627.424732 1834.813905,3638.969489"/>
    <poly id="186254730" type="building.yes" color="255,230,230" fill="1" layer="-1.00" shape="1852.748384,3666.822765 1875.637908,3689.529360 1898.780534,3666.495711 1875.891012,3643.789096 1852.748384,3666.822765"/>
    <poly id="186254731" type="building.yes" color="255,230,230" fill="1" layer="-1.00" shape="1755.420401,3603.604832 1728.598466,3604.302590 1728.889737,3615.560407 1753.535632,3615.472771 1760.394826,3608.333794 1755.420401,3603.604832"/>
    <poly id="186254732" type="building.yes" color="255,230,230" fill="1" layer="-1.00" shape="1729.582551,3640.376218 1753.535632,3615.472771 1760.394826,3608.333794 1755.420401,3603.604832 1727.275334,3576.877399 1734.686315,3569.184988 1775.587144,3608.033156 1737.363887,3647.767971 1729.582551,3640.376218"/>
    <poly id="186254735" type="building.yes" color="255,230,230" fill="1" layer="-1.00" shape="1823.627831,3638.846403 1847.731756,3663.354548 1870.939781,3640.818475 1846.825029,3616.310319 1823.627831,3638.846403"/>
    <poly id="186254737" type="building.yes" color="255,230,230" fill="1" layer="-1.00" shape="1793.097923,3684.457912 1800.684095,3691.595495 1821.910622,3669.293324 1840.821825,3687.059938 1849.931281,3677.486067 1799.494121,3630.097388 1791.423270,3638.575540 1815.352235,3661.071068 1793.097923,3684.457912"/>
    <poly id="186258450" type="building.yes" color="255,230,230" fill="1" layer="-1.00" shape="2056.934295,3516.146090 2063.520363,3518.772524 2064.957534,3515.199242 2067.795605,3516.324845 2068.660081,3514.189721 2101.612074,3527.332964 2101.060978,3528.704748 2108.871091,3531.816749 2106.709889,3537.149025 2106.969241,3536.518442 2118.169866,3540.976763 2126.847030,3519.481751 2065.470956,3495.016125 2056.934295,3516.146090"/>
    <poly id="186258451" type="amenity.restaurant" color="237,199,199" fill="1" layer="-1.00" shape="1949.317415,3919.250231 1880.561957,3850.068725 1892.257009,3837.716837 1901.219160,3845.815401 1961.943681,3906.853339 1949.317415,3919.250231"/>
    <poly id="186258451#1" type="building.yes" color="255,230,230" fill="1" layer="-1.00" shape="1949.317415,3919.250231 1880.561957,3850.068725 1892.257009,3837.716837 1901.219160,3845.815401 1961.943681,3906.853339 1949.317415,3919.250231"/>
    <poly id="186258454" type="building.yes" color="255,230,230" fill="1" layer="-1.00" shape="1942.549705,3881.434221 1968.764013,3854.295107 1921.913963,3809.612591 1930.926147,3800.271069 2001.174065,3867.261743 1963.015637,3906.775009 1954.378267,3898.543439 1983.135023,3868.770120 1975.072031,3861.091002 1949.247200,3887.820594 1942.549705,3881.434221"/>
    <poly id="186258458" type="building.yes" color="255,230,230" fill="1" layer="-1.00" shape="2013.499827,3616.886404 2065.200271,3584.085567 2038.504733,3542.537515 1986.804240,3575.338402 2013.499827,3616.886404"/>
    <poly id="186258461" type="building.yes" color="255,230,230" fill="1" layer="-1.00" shape="1952.429966,3532.525210 1925.505060,3463.661725 1940.118977,3458.031238 1967.043850,3526.894736 1952.429966,3532.525210"/>
    <poly id="186258766" type="building.yes" color="255,230,230" fill="1" layer="-1.00" shape="2057.805573,3534.713414 2075.992994,3541.875224 2069.995875,3556.898454 2083.655381,3562.272565 2089.879410,3546.663017 2100.679204,3550.922610 2107.670435,3533.377089 2065.045350,3516.592602 2057.805573,3534.713414"/>
    <poly id="186258768" type="building.yes" color="255,230,230" fill="1" layer="-1.00" shape="2104.962956,3622.194244 2108.787407,3611.740236 2132.108619,3620.180565 2128.284151,3630.623511 2104.962956,3622.194244"/>
    <poly id="186258769" type="building.yes" color="255,230,230" fill="1" layer="-1.00" shape="2010.842778,3637.535833 2063.671147,3644.988802 2065.985514,3628.796450 2013.157114,3621.343476 2010.842778,3637.535833"/>
    <poly id="186258770" type="building.yes" color="255,230,230" fill="1" layer="-1.00" shape="1960.514113,3666.100007 1971.094550,3654.467945 1954.962814,3619.889175 1927.860227,3646.896348 1920.694403,3637.435979 1957.482161,3602.878271 1982.812305,3655.862423 1965.210568,3675.064843 1960.514113,3666.100007"/>
    <poly id="186258772" type="building.yes" color="255,230,230" fill="1" layer="-1.00" shape="2054.421166,3616.818338 2074.796546,3624.719236 2066.660258,3645.472853 2084.685023,3652.457863 2092.972613,3631.339175 2096.525565,3632.707471 2103.754268,3614.299143 2105.151621,3614.839847 2101.706915,3613.427222 2109.721305,3589.356019 2100.979834,3586.112102 2096.473692,3584.434965 2090.613322,3581.995908 2082.002515,3605.061255 2061.790297,3598.033874 2054.421166,3616.818338"/>
    <poly id="186258774" type="building.yes" color="255,230,230" fill="1" layer="-1.00" shape="2128.522496,3515.974625 2106.577131,3572.062411 2130.061464,3581.276730 2152.299319,3525.277188 2128.522496,3515.974625"/>
    <poly id="186258776" type="building.yes" color="255,230,230" fill="1" layer="-1.00" shape="2097.829215,3650.400768 2133.218186,3664.393519 2140.285114,3646.737351 2104.896123,3632.744591 2097.829215,3650.400768"/>
    <poly id="186258778" type="building.yes" color="255,230,230" fill="1" layer="-1.00" shape="2110.819085,3594.165753 2113.715765,3587.815424 2102.103051,3582.627561 2100.979730,3585.990453 2096.506037,3584.269052 2098.029763,3580.607226 2088.736826,3578.303797 2091.924898,3570.803082 2104.706614,3575.403819 2106.436669,3572.427477 2120.713589,3578.033321 2135.022876,3583.506437 2133.187115,3589.524093 2151.482803,3596.730097 2144.963319,3608.734646 2110.819085,3594.165753"/>
    <poly id="186258779" type="building.yes" color="255,230,230" fill="1" layer="-1.00" shape="2135.549031,3642.052353 2162.857751,3653.574786 2170.121057,3650.394695 2165.177090,3643.177357 2174.465836,3640.570618 2169.229261,3633.077052 2177.358366,3629.310102 2173.875539,3621.239981 2181.712772,3618.059407 2177.060687,3610.266751 2187.800726,3607.946322 2180.820252,3599.879162 2156.416250,3591.528181 2135.549031,3642.052353"/>
    <poly id="186259462" type="leisure.park" color="207,245,201" fill="1" layer="-2.00" shape="1786.349963,3544.224477 1798.564191,3556.212975 1873.561734,3629.867809 1920.278909,3582.207665 1883.645665,3544.428342 1850.676663,3461.193411 1785.760240,3538.452185 1786.349963,3544.224477"/>
    <poly id="186259463" type="building.yes" color="255,230,230" fill="1" layer="-1.00" shape="1747.525148,3552.065621 1765.939964,3534.023553 1774.111876,3542.255465 1768.550650,3547.712350 1797.986847,3577.380408 1803.775284,3571.702153 1811.123483,3579.105360 1797.166312,3592.786309 1762.842155,3558.190152 1758.157301,3562.772622 1747.525148,3552.065621"/>
    <poly id="186259464" type="building.yes" color="255,230,230" fill="1" layer="-1.00" shape="1738.681082,3568.020343 1780.588502,3606.325758 1785.467677,3601.057466 1779.182114,3595.312201 1782.611597,3591.604478 1787.780945,3596.344336 1790.593769,3593.300686 1749.802572,3556.011720 1738.681082,3568.020343"/>
    <poly id="186259465" type="building.yes" color="255,230,230" fill="1" layer="-1.00" shape="1940.997394,3168.538987 1949.085144,3116.300406 1969.705941,3119.456707 1961.618143,3171.684222 1940.997394,3168.538987"/>
    <poly id="186259466" type="building.yes" color="255,230,230" fill="1" layer="-1.00" shape="1735.502313,3523.488473 1759.585754,3498.938812 1778.194505,3517.391302 1761.360291,3535.011755 1758.163842,3532.703181 1754.398208,3535.880364 1750.620247,3537.321296 1744.231846,3537.912937 1739.865156,3534.742773 1737.252451,3531.272502 1735.505054,3526.662406 1735.502313,3523.488473"/>
    <poly id="186259468" type="leisure.sports_centre" color="207,245,201" fill="1" layer="-2.00" shape="2198.588993,3841.680290 2208.506768,3827.505311 2213.935037,3831.249721 2219.148087,3823.791542 2213.058893,3819.594271 2219.548169,3810.310277 2249.679931,3831.097855 2228.070642,3862.014975 2198.588993,3841.680290"/>
    <poly id="186259822" type="building.yes" color="255,230,230" fill="1" layer="-1.00" shape="2487.451456,3505.243651 2491.800939,3487.921622 2466.212233,3461.390354 2460.120755,3467.455782 2447.333487,3456.208421 2461.259625,3443.788569 2453.118588,3433.410980 2461.537030,3425.894876 2469.969239,3434.834554 2481.285442,3422.129361 2471.987177,3413.477938 2479.235170,3404.812682 2489.117944,3413.176085 2505.661052,3396.418943 2514.676085,3403.057877 2522.517268,3404.489004 2531.804692,3400.157188 2540.250114,3424.966541 2553.316989,3420.919116 2556.521064,3432.450983 2545.781165,3435.058796 2550.438939,3449.774443 2562.347613,3446.303056 2564.967420,3458.421537 2554.228489,3462.179483 2558.888659,3479.781527 2550.174220,3482.962721 2547.268052,3478.066006 2510.678204,3491.367324 2508.375807,3509.262708 2487.451456,3505.243651"/>
    <poly id="186259823" type="building.yes" color="255,230,230" fill="1" layer="-1.00" shape="2467.856930,3343.345219 2469.561266,3296.597406 2476.243086,3297.166887 2476.816015,3283.021950 2498.018957,3283.291768 2498.893699,3293.398962 2497.162563,3308.119935 2498.337129,3314.179285 2497.170756,3317.929259 2493.404284,3320.243736 2487.016049,3321.111675 2485.579949,3339.006335 2467.856930,3343.345219"/>
    <poly id="186259824" type="building.yes" color="255,230,230" fill="1" layer="-1.00" shape="2497.541514,3476.603470 2473.178665,3452.725331 2507.710347,3412.585489 2521.941670,3415.460011 2540.871675,3469.124607 2508.350750,3479.248604 2503.300708,3474.608040 2497.541514,3476.603470"/>
    <poly id="186259825" type="building.yes" color="255,230,230" fill="1" layer="-1.00" shape="2484.627308,3391.183488 2505.661052,3396.418943 2510.481250,3372.173594 2536.811122,3378.455258 2531.804692,3400.157188 2554.756251,3406.773457 2556.784595,3397.825038 2546.322136,3395.522424 2549.115677,3382.205062 2561.126195,3383.964496 2563.445233,3372.992038 2492.178702,3356.816869 2488.799262,3368.730234 2501.579083,3371.030890 2498.643055,3382.269285 2488.104248,3379.325336 2484.627308,3391.183488"/>
    <poly id="186259862" type="leisure.park" color="207,245,201" fill="1" layer="-2.00" shape="2563.565083,3581.918555 2601.782605,3533.724808 2627.809975,3554.107035 2589.592436,3602.300745 2563.565083,3581.918555"/>
    <poly id="186259863" type="building.yes" color="255,230,230" fill="1" layer="-1.00" shape="2526.719593,3574.185849 2544.442708,3570.134534 2560.394270,3545.293787 2550.513731,3539.529221 2557.760038,3528.851249 2566.775005,3535.479140 2583.887199,3512.948773 2591.743028,3519.013628 2588.240349,3499.961886 2606.821146,3498.508765 2608.867727,3511.490330 2616.134237,3512.059359 2625.719045,3513.787660 2632.110351,3516.668752 2639.662242,3521.860212 2644.897751,3528.203733 2650.138762,3541.182650 2662.052194,3543.484099 2662.638317,3558.203142 2646.082515,3559.654544 2654.513427,3567.156610 2636.523127,3588.526467 2644.660219,3594.292511 2635.962145,3604.109063 2628.107801,3599.791516 2613.891456,3614.810389 2608.083234,3609.905020 2605.757241,3612.505819 2607.221468,3628.374267 2590.666438,3630.699365 2588.048820,3621.179743 2582.525985,3620.896804 2575.561978,3619.453871 2567.708586,3616.286477 2560.449329,3611.393386 2555.507386,3606.487306 2551.149229,3600.430606 2548.816742,3595.234819 2548.228872,3591.486308 2547.935052,3589.750290 2529.648141,3592.939470 2526.719593,3574.185849"/>
    <poly id="186260306" type="building.yes" color="255,230,230" fill="1" layer="-1.00" shape="2549.537756,2809.990115 2554.672276,2772.893973 2564.538582,2774.234956 2559.404058,2811.342155 2549.537756,2809.990115"/>
    <poly id="186260307" type="building.yes" color="255,230,230" fill="1" layer="-1.00" shape="2562.746090,2949.488335 2568.850380,2919.612908 2589.807835,2923.842128 2583.714351,2953.717540 2562.746090,2949.488335"/>
    <poly id="186260308" type="building.yes" color="255,230,230" fill="1" layer="-1.00" shape="2592.215343,3149.443638 2629.774644,2985.838827 2649.746857,2990.367504 2612.187442,3153.972286 2592.215343,3149.443638"/>
    <poly id="186260309" type="building.yes" color="255,230,230" fill="1" layer="-1.00" shape="2605.609605,2718.187001 2614.132274,2679.373916 2626.772000,2682.117111 2618.249314,2720.930192 2605.609605,2718.187001"/>
    <poly id="186260310" type="building.yes" color="255,230,230" fill="1" layer="-1.00" shape="2554.726276,2954.770153 2563.537581,2911.643795 2597.838494,2918.560311 2589.027136,2961.686658 2554.726276,2954.770153"/>
    <poly id="186260311" type="building.yes" color="255,230,230" fill="1" layer="-1.00" shape="2594.751416,2774.254062 2602.642882,2731.725673 2634.344132,2737.527441 2626.452618,2780.055819 2594.751416,2774.254062"/>
    <poly id="186260312" type="building.yes" color="255,230,230" fill="1" layer="-1.00" shape="2540.666568,3067.152323 2545.767149,3041.391670 2561.460725,3044.464059 2556.370949,3070.213640 2540.666568,3067.152323"/>
    <poly id="186260313" type="building.yes" color="255,230,230" fill="1" layer="-1.00" shape="2604.059038,2767.887405 2609.050487,2740.965668 2625.036493,2743.894086 2620.045028,2770.815820 2604.059038,2767.887405"/>
    <poly id="186260314" type="landuse.recreation_ground" color="194,194,130" fill="1" layer="-3.00" shape="2536.032093,2534.754086 2612.173962,2355.457681 2733.307291,2406.239784 2657.175597,2585.535834 2536.032093,2534.754086"/>
    <poly id="186260315" type="building.yes" color="255,230,230" fill="1" layer="-1.00" shape="2534.494858,2808.211092 2539.607478,2770.849549 2548.769811,2772.080523 2543.657187,2809.453123 2534.494858,2808.211092"/>
    <poly id="186260316" type="building.yes" color="255,230,230" fill="1" layer="-1.00" shape="2555.306258,2766.976883 2561.468351,2728.442219 2571.768071,2730.070378 2565.605964,2768.605040 2555.306258,2766.976883"/>
    <poly id="186260317" type="building.yes" color="255,230,230" fill="1" layer="-1.00" shape="2551.868147,3007.612414 2557.088670,2982.813798 2574.634504,2986.470779 2569.403136,3011.269401 2551.868147,3007.612414"/>
    <poly id="186260318" type="building.yes" color="255,230,230" fill="1" layer="-1.00" shape="2524.550325,3128.576367 2530.504539,3100.636376 2548.256112,3104.370581 2542.301880,3132.310568 2524.550325,3128.576367"/>
    <poly id="186260319" type="building.yes" color="255,230,230" fill="1" layer="-1.00" shape="2540.382160,2764.843870 2546.663083,2725.988392 2556.074719,2727.484577 2549.782953,2766.340061 2540.382160,2764.843870"/>
    <poly id="186260320" type="building.yes" color="255,230,230" fill="1" layer="-1.00" shape="2579.620020,2835.345467 2588.355219,2791.754707 2622.179610,2798.439413 2613.444369,2842.041221 2579.620020,2835.345467"/>
    <poly id="186260321" type="building.yes" color="255,230,230" fill="1" layer="-1.00" shape="2531.781021,3073.076293 2539.803925,3032.571561 2570.346287,3038.540099 2562.334168,3079.044813 2531.781021,3073.076293"/>
    <poly id="186260322" type="building.yes" color="255,230,230" fill="1" layer="-1.00" shape="2542.798460,3013.503356 2551.168606,2973.816706 2583.704207,2980.579848 2575.334025,3020.277546 2542.798460,3013.503356"/>
    <poly id="186260323" type="building.yes" color="255,230,230" fill="1" layer="-1.00" shape="2515.891940,3134.179443 2524.866363,3092.026120 2556.914513,3098.767516 2547.940042,3140.920828 2515.891940,3134.179443"/>
    <poly id="186260324" type="building.yes" color="255,230,230" fill="1" layer="-1.00" shape="2604.251345,2921.131727 2615.500129,2866.026472 2670.574425,2877.117196 2659.325542,2932.233485 2604.251345,2921.131727"/>
    <poly id="186260325" type="building.yes" color="255,230,230" fill="1" layer="-1.00" shape="2589.847728,2828.557798 2595.185907,2801.912244 2611.951884,2805.227070 2606.613689,2831.872621 2589.847728,2828.557798"/>
    <poly id="186262681" type="building.yes" color="255,230,230" fill="1" layer="-1.00" shape="2725.391483,2563.859056 2743.714134,2471.910534 2803.067146,2483.584132 2784.744301,2575.532612 2725.391483,2563.859056"/>
    <poly id="186262681#1" type="tourism.hostel" color="207,245,201" fill="1" layer="-2.00" shape="2725.391483,2563.859056 2743.714134,2471.910534 2803.067146,2483.584132 2784.744301,2575.532612 2725.391483,2563.859056"/>
    <poly id="186262683" type="building.yes" color="255,230,230" fill="1" layer="-1.00" shape="2641.948999,2284.025078 2628.862088,2251.555680 2663.363302,2237.824991 2676.450177,2270.294404 2641.948999,2284.025078"/>
    <poly id="186262684" type="building.yes" color="255,230,230" fill="1" layer="-1.00" shape="2718.213083,2316.420082 2705.732118,2283.231313 2738.512780,2271.061460 2750.993700,2304.239184 2718.213083,2316.420082"/>
    <poly id="186262685" type="leisure.track" color="207,245,201" fill="1" layer="-2.00" shape="2567.868917,2507.975875 2604.759311,2411.588215 2612.882144,2399.748350 2620.425490,2394.267887 2628.272522,2389.351183 2636.111123,2387.320885 2644.827368,2385.875988 2653.533977,2385.868770 2665.448157,2388.457761 2675.902547,2393.635769 2684.333336,2400.562777 2690.156209,2409.792214 2695.397170,2422.483599 2696.273524,2434.603527 2695.699741,2447.885849 2657.434359,2531.899510 2650.175964,2541.438377 2641.756703,2548.368287 2631.310495,2552.988552 2620.277614,2555.309038 2609.231030,2554.168076 2601.682219,2553.013152 2592.094677,2548.409520 2584.542746,2543.505606 2576.977592,2535.726367 2573.485595,2529.668944 2570.284297,2521.587484 2568.535297,2514.953544 2567.868917,2507.975875"/>
    <poly id="186262692" type="building.yes" color="255,230,230" fill="1" layer="-1.00" shape="2740.663338,2554.247238 2745.470946,2527.414157 2776.121666,2532.829896 2771.314037,2559.674030 2740.663338,2554.247238"/>
    <poly id="186262692#1" type="tourism.hostel" color="207,245,201" fill="1" layer="-2.00" shape="2740.663338,2554.247238 2745.470946,2527.414157 2776.121666,2532.829896 2771.314037,2559.674030 2740.663338,2554.247238"/>
    <poly id="186262699" type="building.yes" color="255,230,230" fill="1" layer="-1.00" shape="2783.091049,2658.730765 2778.584742,2656.987158 2784.560487,2641.577058 2782.253288,2640.826948 2783.365459,2636.922207 2786.982541,2637.151466 2789.043329,2627.981864 2786.433180,2627.552714 2786.678694,2623.239505 2789.797096,2622.805635 2792.060358,2609.654630 2797.495053,2607.858597 2796.102469,2586.858720 2803.801484,2586.332607 2806.147790,2608.271714 2801.924534,2608.352604 2799.470424,2639.607334 2794.119589,2638.030305 2793.504349,2640.474849 2796.222996,2641.158267 2786.409417,2664.423411 2790.883399,2666.366107 2775.837626,2687.445886 2770.518009,2684.320578 2772.367433,2681.487951 2768.694625,2679.334476 2783.091049,2658.730765"/>