<?xml version="1.0" encoding="UTF-8"?>
<!-- generated on 2020-11-25 19:48:33.089245 by osmWebWizard.py v1_7_0+0000-714814baed
  options: 
-->
<routes xmlns:xsi="http://www.w3.org/2001/XMLSchema-instance" xsi:noNamespaceSchemaLocation="http://sumo.dlr.de/xsd/routes_file.xsd">
    <vType id="ped_pedestrian" vClass="pedestrian"/>
    <person id="ped0" depart="0.00" type="ped_pedestrian">
        <walk from="171904519#3" to="-133755125#2"/>
    </person>
    <person id="ped1" depart="0.99" type="ped_pedestrian">
        <walk from="-246985864#3" to="-229635038#2"/>
    </person>
    <person id="ped2" depart="1.98" type="ped_pedestrian">
        <walk from="800610510" to="-158486424#3"/>
    </person>
    <person id="ped3" depart="2.97" type="ped_pedestrian">
        <walk from="-803758032" to="-133755126#0"/>
    </person>
    <person id="ped4" depart="3.96" type="ped_pedestrian">
        <walk from="-186263433#1" to="133755118#0"/>
    </person>
    <person id="ped5" depart="4.95" type="ped_pedestrian">
        <walk from="-133755125#4" to="-186258462#0"/>
    </person>
    <person id="ped6" depart="5.94" type="ped_pedestrian">
        <walk from="-186276679#0" to="171865797#6"/>
    </person>
    <person id="ped7" depart="6.93" type="ped_pedestrian">
        <walk from="469189654#1" to="-133637485"/>
    </person>
    <person id="ped8" depart="7.92" type="ped_pedestrian">
        <walk from="374530997#0" to="186262693"/>
    </person>
    <person id="ped9" depart="8.91" type="ped_pedestrian">
        <walk from="-709873268" to="-171904520"/>
    </person>
    <person id="ped10" depart="9.90" type="ped_pedestrian">
        <walk from="-171865791" to="-171865792#5"/>
    </person>
    <person id="ped11" depart="10.89" type="ped_pedestrian">
        <walk from="714381033" to="171867132"/>
    </person>
    <person id="ped12" depart="11.88" type="ped_pedestrian">
        <walk from="374531000" to="229635059#0"/>
    </person>
    <person id="ped13" depart="12.87" type="ped_pedestrian">
        <walk from="-800610499" to="133882909#2"/>
    </person>
    <person id="ped14" depart="13.86" type="ped_pedestrian">
        <walk from="706318005" to="171870088#1"/>
    </person>
    <person id="ped15" depart="14.85" type="ped_pedestrian">
        <walk from="800384387#2" to="171865787"/>
    </person>
    <person id="ped16" depart="15.84" type="ped_pedestrian">
        <walk from="186263433#0" to="-133755130#6"/>
    </person>
    <person id="ped17" depart="16.83" type="ped_pedestrian">
        <walk from="-229635040#1" to="-288926324#1"/>
    </person>
    <person id="ped18" depart="17.82" type="ped_pedestrian">
        <walk from="-158486424#0" to="-229635043#2"/>
    </person>
    <person id="ped19" depart="18.81" type="ped_pedestrian">
        <walk from="-171865797#3" to="-246989087#0"/>
    </person>
    <person id="ped20" depart="19.80" type="ped_pedestrian">
        <walk from="-800610487#1" to="-186262687#8"/>
    </person>
    <person id="ped21" depart="20.79" type="ped_pedestrian">
        <walk from="-246982755#1" to="804207581"/>
    </person>
    <person id="ped22" depart="21.78" type="ped_pedestrian">
        <walk from="173655929#2" to="171870075#0"/>
    </person>
    <person id="ped23" depart="22.77" type="ped_pedestrian">
        <walk from="135530186#15" to="186258462#1"/>
    </person>
    <person id="ped24" depart="23.76" type="ped_pedestrian">
        <walk from="709873267" to="286440385#1"/>
    </person>
    <person id="ped25" depart="24.75" type="ped_pedestrian">
        <walk from="-229635041#0" to="-133755126#13"/>
    </person>
    <person id="ped26" depart="25.74" type="ped_pedestrian">
        <walk from="-543878957" to="-246982756"/>
    </person>
    <person id="ped27" depart="26.73" type="ped_pedestrian">
        <walk from="135530186#21" to="-245441809#0"/>
    </person>
    <person id="ped28" depart="27.72" type="ped_pedestrian">
        <walk from="171865797#0" to="800669875"/>
    </person>
    <person id="ped29" depart="28.71" type="ped_pedestrian">
        <walk from="-803243445#0" to="-186263438#0"/>
    </person>
    <person id="ped30" depart="29.70" type="ped_pedestrian">
        <walk from="817124519" to="133755121"/>
    </person>
    <person id="ped31" depart="30.69" type="ped_pedestrian">
        <walk from="-171867127#0" to="171902839#3"/>
    </person>
    <person id="ped32" depart="31.68" type="ped_pedestrian">
        <walk from="306475942#1" to="-803758032"/>
    </person>
    <person id="ped33" depart="32.67" type="ped_pedestrian">
        <walk from="-133882615#3" to="-800610505#1"/>
    </person>
    <person id="ped34" depart="33.66" type="ped_pedestrian">
        <walk from="812556707#1" to="133755130#1"/>
    </person>
    <person id="ped35" depart="34.65" type="ped_pedestrian">
        <walk from="806271848" to="800384387#0"/>
    </person>
    <person id="ped36" depart="35.64" type="ped_pedestrian">
        <walk from="-133637487#5" to="229635045#1"/>
    </person>
    <person id="ped37" depart="36.63" type="ped_pedestrian">
        <walk from="186258455#2" to="133755134#0"/>
    </person>
    <person id="ped38" depart="37.62" type="ped_pedestrian">
        <walk from="-246982755#1" to="171904523"/>
    </person>
    <person id="ped39" depart="38.61" type="ped_pedestrian">
        <walk from="-171867127#3" to="-805215218"/>
    </person>
    <person id="ped40" depart="39.60" type="ped_pedestrian">
        <walk from="-806271842#0" to="805231225"/>
    </person>
    <person id="ped41" depart="40.59" type="ped_pedestrian">
        <walk from="133637883#4" to="-186250480#4"/>
    </person>
    <person id="ped42" depart="41.58" type="ped_pedestrian">
        <walk from="-306475941#1" to="171904519#2"/>
    </person>
    <person id="ped43" depart="42.57" type="ped_pedestrian">
        <walk from="171867138#1" to="-171904517"/>
    </person>
    <person id="ped44" depart="43.56" type="ped_pedestrian">
        <walk from="288926324#0" to="133755130#3"/>
    </person>
    <person id="ped45" depart="44.55" type="ped_pedestrian">
        <walk from="-122612356#0" to="-706173403"/>
    </person>
    <person id="ped46" depart="45.54" type="ped_pedestrian">
        <walk from="-133755118#0" to="803758029#1"/>
    </person>
    <person id="ped47" depart="46.53" type="ped_pedestrian">
        <walk from="800610489" to="706318011"/>
    </person>
    <person id="ped48" depart="47.52" type="ped_pedestrian">
        <walk from="-158486424#18" to="-817230302"/>
    </person>
    <person id="ped49" depart="48.51" type="ped_pedestrian">
        <walk from="-135530186#11" to="246985860#1"/>
    </person>
    <person id="ped50" depart="49.50" type="ped_pedestrian">
        <walk from="246989083#3" to="-171870082"/>
    </person>
    <person id="ped51" depart="50.49" type="ped_pedestrian">
        <walk from="-806371414" to="133882615#3"/>
    </person>
    <person id="ped52" depart="51.48" type="ped_pedestrian">
        <walk from="-186259469" to="-364433566"/>
    </person>
    <person id="ped53" depart="52.47" type="ped_pedestrian">
        <walk from="-805231223#0" to="133755126#12"/>
    </person>
    <person id="ped54" depart="53.46" type="ped_pedestrian">
        <walk from="-171867136#2" to="-229635038#5"/>
    </person>
    <person id="ped55" depart="54.45" type="ped_pedestrian">
        <walk from="-706734276#2" to="171865797#5"/>
    </person>
    <person id="ped56" depart="55.44" type="ped_pedestrian">
        <walk from="-229635041#2" to="-186263438#1"/>
    </person>
    <person id="ped57" depart="56.43" type="ped_pedestrian">
        <walk from="-135530186#15" to="171902843#1"/>
    </person>
    <person id="ped58" depart="57.42" type="ped_pedestrian">
        <walk from="800384386" to="-135530186#15"/>
    </person>
    <person id="ped59" depart="58.41" type="ped_pedestrian">
        <walk from="-229635051" to="186250796"/>
    </person>
    <person id="ped60" depart="59.40" type="ped_pedestrian">
        <walk from="-186262708#0" to="-171870086#0"/>
    </person>
    <person id="ped61" depart="60.39" type="ped_pedestrian">
        <walk from="804207575" to="158486424#17"/>
    </person>
    <person id="ped62" depart="61.38" type="ped_pedestrian">
        <walk from="-806366425" to="290625964"/>
    </person>
    <person id="ped63" depart="62.37" type="ped_pedestrian">
        <walk from="-171865792#7" to="-805215212"/>
    </person>
    <person id="ped64" depart="63.36" type="ped_pedestrian">
        <walk from="806355598#3" to="-171865797#0"/>
    </person>
    <person id="ped65" depart="64.35" type="ped_pedestrian">
        <walk from="-803243449" to="-709859523#0"/>
    </person>
    <person id="ped66" depart="65.34" type="ped_pedestrian">
        <walk from="800384387#2" to="-229635299#5"/>
    </person>
    <person id="ped67" depart="66.33" type="ped_pedestrian">
        <walk from="-805873583#1" to="800384387#1"/>
    </person>
    <person id="ped68" depart="67.32" type="ped_pedestrian">
        <walk from="817230303" to="706734274#2"/>
    </person>
    <person id="ped69" depart="68.31" type="ped_pedestrian">
        <walk from="-817230302" to="-186262695#1"/>
    </person>
    <person id="ped70" depart="69.30" type="ped_pedestrian">
        <walk from="-800610501" to="806355600"/>
    </person>
    <person id="ped71" depart="70.29" type="ped_pedestrian">
        <walk from="-246982751" to="290520227"/>
    </person>
    <person id="ped72" depart="71.28" type="ped_pedestrian">
        <walk from="135530186#12" to="229635043#0"/>
    </person>
    <person id="ped73" depart="72.27" type="ped_pedestrian">
        <walk from="-171904519#1" to="-306475940#0"/>
    </person>
    <person id="ped74" depart="73.26" type="ped_pedestrian">
        <walk from="806271844" to="171865792#0"/>
    </person>
    <person id="ped75" depart="74.25" type="ped_pedestrian">
        <walk from="-158486424#1" to="-186250799#0"/>
    </person>
    <person id="ped76" depart="75.24" type="ped_pedestrian">
        <walk from="171867126#7" to="186254736#4"/>
    </person>
    <person id="ped77" depart="76.23" type="ped_pedestrian">
        <walk from="-229635045#3" to="-171867136#0"/>
    </person>
    <person id="ped78" depart="77.22" type="ped_pedestrian">
        <walk from="171867126#6" to="171902829#0"/>
    </person>
    <person id="ped79" depart="78.21" type="ped_pedestrian">
        <walk from="133755126#7" to="804207571"/>
    </person>
    <person id="ped80" depart="79.20" type="ped_pedestrian">
        <walk from="-186262687#11" to="229635041#1"/>
    </person>
    <person id="ped81" depart="80.19" type="ped_pedestrian">
        <walk from="186250799#0" to="-306475942#1"/>
    </person>
    <person id="ped82" depart="81.18" type="ped_pedestrian">
        <walk from="-546666120" to="246982749#2"/>
    </person>
    <person id="ped83" depart="82.17" type="ped_pedestrian">
        <walk from="-135530186#19" to="-186262695#0"/>
    </person>
    <person id="ped84" depart="83.16" type="ped_pedestrian">
        <walk from="-246982751" to="803758035#1"/>
    </person>
    <person id="ped85" depart="84.15" type="ped_pedestrian">
        <walk from="800610493" to="800610491"/>
    </person>
    <person id="ped86" depart="85.14" type="ped_pedestrian">
        <walk from="706734271" to="186263426#0"/>
    </person>
    <person id="ped87" depart="86.13" type="ped_pedestrian">
        <walk from="173655938#10" to="-133637486#1"/>
    </person>
    <person id="ped88" depart="87.12" type="ped_pedestrian">
        <walk from="186250480#4" to="804217356#1"/>
    </person>
    <person id="ped89" depart="88.11" type="ped_pedestrian">
        <walk from="-171870088#0" to="-171867130#3"/>
    </person>
    <person id="ped90" depart="89.10" type="ped_pedestrian">
        <walk from="-171867126#3" to="133882910#0"/>
    </person>
    <person id="ped91" depart="90.09" type="ped_pedestrian">
        <walk from="-246985860#0" to="171867136#0"/>
    </person>
    <person id="ped92" depart="91.08" type="ped_pedestrian">
        <walk from="229635042#1" to="-186262687#10"/>
    </person>
    <person id="ped93" depart="92.07" type="ped_pedestrian">
        <walk from="171904516#4" to="-246982749#1"/>
    </person>
    <person id="ped94" depart="93.06" type="ped_pedestrian">
        <walk from="122612374#0" to="800715313"/>
    </person>
    <person id="ped95" depart="94.05" type="ped_pedestrian">
        <walk from="713329442" to="-171865791"/>
    </person>
    <person id="ped96" depart="95.04" type="ped_pedestrian">
        <walk from="-122612374#4" to="286438371#0"/>
    </person>
    <person id="ped97" depart="96.03" type="ped_pedestrian">
        <walk from="236471191" to="133882909#2"/>
    </person>
    <person id="ped98" depart="97.02" type="ped_pedestrian">
        <walk from="-804207577" to="-133637487#2"/>
    </person>
    <person id="ped99" depart="98.01" type="ped_pedestrian">
        <walk from="-135530186#21" to="800610496"/>
    </person>
    <person id="ped100" depart="99.00" type="ped_pedestrian">
        <walk from="800669887" to="133882611#3"/>
    </person>
    <person id="ped101" depart="99.99" type="ped_pedestrian">
        <walk from="706734273" to="171865792#5"/>
    </person>
    <person id="ped102" depart="100.98" type="ped_pedestrian">
        <walk from="-171904516#0" to="-171870081#0"/>
    </person>
    <person id="ped103" depart="101.97" type="ped_pedestrian">
        <walk from="-306475947#1" to="800669877"/>
    </person>
    <person id="ped104" depart="102.96" type="ped_pedestrian">
        <walk from="306475945" to="800384387#0"/>
    </person>
    <person id="ped105" depart="103.95" type="ped_pedestrian">
        <walk from="800669877" to="-186262687#9"/>
    </person>
    <person id="ped106" depart="104.94" type="ped_pedestrian">
        <walk from="-229635299#7" to="-171865797#6"/>
    </person>
    <person id="ped107" depart="105.93" type="ped_pedestrian">
        <walk from="288926324#2" to="800610498#1"/>
    </person>
    <person id="ped108" depart="106.92" type="ped_pedestrian">
        <walk from="-803757990" to="171902831#2"/>
    </person>
    <person id="ped109" depart="107.91" type="ped_pedestrian">
        <walk from="800384390#0" to="806281534"/>
    </person>
    <person id="ped110" depart="108.90" type="ped_pedestrian">
        <walk from="543878957" to="800610494"/>
    </person>
    <person id="ped111" depart="109.89" type="ped_pedestrian">
        <walk from="-133755125#1" to="229635299#7"/>
    </person>
    <person id="ped112" depart="110.88" type="ped_pedestrian">
        <walk from="-706734273" to="803758032"/>
    </person>
    <person id="ped113" depart="111.87" type="ped_pedestrian">
        <walk from="306475950" to="800384389"/>
    </person>
    <person id="ped114" depart="112.86" type="ped_pedestrian">
        <walk from="543878957" to="-246982755#0"/>
    </person>
    <person id="ped115" depart="113.85" type="ped_pedestrian">
        <walk from="290646814" to="-171867126#6"/>
    </person>
    <person id="ped116" depart="114.84" type="ped_pedestrian">
        <walk from="800610483#3" to="800384384"/>
    </person>
    <person id="ped117" depart="115.83" type="ped_pedestrian">
        <walk from="306475944#1" to="-229635040#1"/>
    </person>
    <person id="ped118" depart="116.82" type="ped_pedestrian">
        <walk from="-133755124" to="-186254736#9"/>
    </person>
    <person id="ped119" depart="117.81" type="ped_pedestrian">
        <walk from="-706318004#1" to="800384390#0"/>
    </person>
    <person id="ped120" depart="118.80" type="ped_pedestrian">
        <walk from="806271841#1" to="-246989092#1"/>
    </person>
    <person id="ped121" depart="119.79" type="ped_pedestrian">
        <walk from="171904523" to="-803243445#1"/>
    </person>
    <person id="ped122" depart="120.78" type="ped_pedestrian">
        <walk from="804217356#11" to="-171867130#3"/>
    </person>
    <person id="ped123" depart="121.77" type="ped_pedestrian">
        <walk from="-171867126#6" to="-805215218"/>
    </person>
    <person id="ped124" depart="122.76" type="ped_pedestrian">
        <walk from="229635057" to="-374530997#0"/>
    </person>
    <person id="ped125" depart="123.75" type="ped_pedestrian">
        <walk from="171867136#3" to="133755125#2"/>
    </person>
    <person id="ped126" depart="124.74" type="ped_pedestrian">
        <walk from="-800610510" to="171865779"/>
    </person>
    <person id="ped127" depart="125.73" type="ped_pedestrian">
        <walk from="-236471192#0" to="229635038#0"/>
    </person>
    <person id="ped128" depart="126.72" type="ped_pedestrian">
        <walk from="-122612374#0" to="803758025#0"/>
    </person>
    <person id="ped129" depart="127.71" type="ped_pedestrian">
        <walk from="186250792#0" to="-706318011"/>
    </person>
    <person id="ped130" depart="128.70" type="ped_pedestrian">
        <walk from="-374530997#1" to="714381033"/>
    </person>
    <person id="ped131" depart="129.69" type="ped_pedestrian">
        <walk from="229635043#2" to="-306475942#1"/>
    </person>
    <person id="ped132" depart="130.68" type="ped_pedestrian">
        <walk from="-803243448" to="-290646813"/>
    </person>
    <person id="ped133" depart="131.67" type="ped_pedestrian">
        <walk from="-171870081#0" to="-803758029#1"/>
    </person>
    <person id="ped134" depart="132.66" type="ped_pedestrian">
        <walk from="804217356#4" to="186254736#7"/>
    </person>
    <person id="ped135" depart="133.65" type="ped_pedestrian">
        <walk from="-805873583#0" to="-186262695#1"/>
    </person>
    <person id="ped136" depart="134.63" type="ped_pedestrian">
        <walk from="-806371404" to="800669880#1"/>
    </person>
    <person id="ped137" depart="135.62" type="ped_pedestrian">
        <walk from="-158486424#17" to="133755125#9"/>
    </person>
    <person id="ped138" depart="136.61" type="ped_pedestrian">
        <walk from="171904516#2" to="-706734275#1"/>
    </person>
    <person id="ped139" depart="137.60" type="ped_pedestrian">
        <walk from="-803758020" to="171902842#0"/>
    </person>
    <person id="ped140" depart="138.59" type="ped_pedestrian">
        <walk from="-186258453" to="186262688#0"/>
    </person>
    <person id="ped141" depart="139.58" type="ped_pedestrian">
        <walk from="173655938#14" to="-133637484#2"/>
    </person>
    <person id="ped142" depart="140.57" type="ped_pedestrian">
        <walk from="246982749#0" to="246989098#1"/>
    </person>
    <person id="ped143" depart="141.56" type="ped_pedestrian">
        <walk from="133755126#12" to="-133755132#6"/>
    </person>
    <person id="ped144" depart="142.55" type="ped_pedestrian">
        <walk from="-806271845" to="306475948"/>
    </person>
    <person id="ped145" depart="143.54" type="ped_pedestrian">
        <walk from="171867126#8" to="805215225"/>
    </person>
    <person id="ped146" depart="144.53" type="ped_pedestrian">
        <walk from="800610509#2" to="171870082"/>
    </person>
    <person id="ped147" depart="145.52" type="ped_pedestrian">
        <walk from="229635043#2" to="133637887#2"/>
    </person>
    <person id="ped148" depart="146.51" type="ped_pedestrian">
        <walk from="800669874" to="236471195#0"/>
    </person>
    <person id="ped149" depart="147.50" type="ped_pedestrian">
        <walk from="-229635299#3" to="171904519#0"/>
    </person>
    <person id="ped150" depart="148.49" type="ped_pedestrian">
        <walk from="246989083#3" to="133755126#4"/>
    </person>
    <person id="ped151" depart="149.48" type="ped_pedestrian">
        <walk from="171902839#2" to="-246985864#2"/>
    </person>
    <person id="ped152" depart="150.47" type="ped_pedestrian">
        <walk from="-135530186#4" to="-286440385#1"/>
    </person>
    <person id="ped153" depart="151.46" type="ped_pedestrian">
        <walk from="133882604#4" to="-171902835#1"/>
    </person>
    <person id="ped154" depart="152.45" type="ped_pedestrian">
        <walk from="-229635042#1" to="186262687#6"/>
    </person>
    <person id="ped155" depart="153.44" type="ped_pedestrian">
        <walk from="-803758023" to="-186262687#2"/>
    </person>
    <person id="ped156" depart="154.43" type="ped_pedestrian">
        <walk from="171865792#8" to="186262687#9"/>
    </person>
    <person id="ped157" depart="155.42" type="ped_pedestrian">
        <walk from="800384381" to="246989083#2"/>
    </person>
    <person id="ped158" depart="156.41" type="ped_pedestrian">
        <walk from="-800384383" to="246982753#0"/>
    </person>
    <person id="ped159" depart="157.40" type="ped_pedestrian">
        <walk from="800307537" to="805231224"/>
    </person>
    <person id="ped160" depart="158.39" type="ped_pedestrian">
        <walk from="-803758028" to="245441027#4"/>
    </person>
    <person id="ped161" depart="159.38" type="ped_pedestrian">
        <walk from="133882611#4" to="171867132"/>
    </person>
    <person id="ped162" depart="160.37" type="ped_pedestrian">
        <walk from="-186276679#0" to="-186263438#0"/>
    </person>
    <person id="ped163" depart="161.36" type="ped_pedestrian">
        <walk from="-805215220" to="-133755125#9"/>
    </person>
    <person id="ped164" depart="162.35" type="ped_pedestrian">
        <walk from="-706734275#3" to="186258449"/>
    </person>
    <person id="ped165" depart="163.34" type="ped_pedestrian">
        <walk from="-803709633" to="-173655929#4"/>
    </person>
    <person id="ped166" depart="164.33" type="ped_pedestrian">
        <walk from="171902835#1" to="-133755125#5"/>
    </person>
    <person id="ped167" depart="165.32" type="ped_pedestrian">
        <walk from="-800669882" to="135530186#8"/>
    </person>
    <person id="ped168" depart="166.31" type="ped_pedestrian">
        <walk from="-186262688#1" to="-706173405#1"/>
    </person>
    <person id="ped169" depart="167.30" type="ped_pedestrian">
        <walk from="246982749#2" to="706318012"/>
    </person>
    <person id="ped170" depart="168.29" type="ped_pedestrian">
        <walk from="-236471188#0" to="-158486424#12"/>
    </person>
    <person id="ped171" depart="169.28" type="ped_pedestrian">
        <walk from="817230304" to="-800384380"/>
    </person>
    <person id="ped172" depart="170.27" type="ped_pedestrian">
        <walk from="173655932#2" to="246982755#0"/>
    </person>
    <person id="ped173" depart="171.26" type="ped_pedestrian">
        <walk from="-133755118#2" to="-171904516#7"/>
    </person>
    <person id="ped174" depart="172.25" type="ped_pedestrian">
        <walk from="-171870076#0" to="186250797#0"/>
    </person>
    <person id="ped175" depart="173.24" type="ped_pedestrian">
        <walk from="135530186#6" to="-186263433#0"/>
    </person>
    <person id="ped176" depart="174.23" type="ped_pedestrian">
        <walk from="186262695#1" to="246989087#1"/>
    </person>
    <person id="ped177" depart="175.22" type="ped_pedestrian">
        <walk from="-173655938#0" to="171867136#4"/>
    </person>
    <person id="ped178" depart="176.21" type="ped_pedestrian">
        <walk from="245441027#5" to="-171867130#2"/>
    </person>
    <person id="ped179" depart="177.20" type="ped_pedestrian">
        <walk from="668986454#3" to="806271840#1"/>
    </person>
    <person id="ped180" depart="178.19" type="ped_pedestrian">
        <walk from="-171867126#6" to="-133755125#3"/>
    </person>
    <person id="ped181" depart="179.18" type="ped_pedestrian">
        <walk from="-364433566" to="186254736#7"/>
    </person>
    <person id="ped182" depart="180.17" type="ped_pedestrian">
        <walk from="806271835#0" to="-800669888"/>
    </person>
    <person id="ped183" depart="181.16" type="ped_pedestrian">
        <walk from="229635040#2" to="-135530186#23"/>
    </person>
    <person id="ped184" depart="182.15" type="ped_pedestrian">
        <walk from="186262687#12" to="171902839#3"/>
    </person>
    <person id="ped185" depart="183.14" type="ped_pedestrian">
        <walk from="-171865797#4" to="286438372"/>
    </person>
    <person id="ped186" depart="184.13" type="ped_pedestrian">
        <walk from="715685826#0" to="171867130#2"/>
    </person>
    <person id="ped187" depart="185.12" type="ped_pedestrian">
        <walk from="-171867136#2" to="806355598#3"/>
    </person>
    <person id="ped188" depart="186.11" type="ped_pedestrian">
        <walk from="290520225#1" to="-800307525"/>
    </person>
    <person id="ped189" depart="187.10" type="ped_pedestrian">
        <walk from="133755118#1" to="-713329444"/>
    </person>
    <person id="ped190" depart="188.09" type="ped_pedestrian">
        <walk from="715685822" to="706110058#4"/>
    </person>
    <person id="ped191" depart="189.08" type="ped_pedestrian">
        <walk from="171904516#6" to="706318004#1"/>
    </person>
    <person id="ped192" depart="190.07" type="ped_pedestrian">
        <walk from="229635299#3" to="806271840#2"/>
    </person>
    <person id="ped193" depart="191.06" type="ped_pedestrian">
        <walk from="-246985854#1" to="374532420#1"/>
    </person>
    <person id="ped194" depart="192.05" type="ped_pedestrian">
        <walk from="-805215219" to="229635059#2"/>
    </person>
    <person id="ped195" depart="193.04" type="ped_pedestrian">
        <walk from="706318010" to="-158486424#3"/>
    </person>
    <person id="ped196" depart="194.03" type="ped_pedestrian">
        <walk from="800610494" to="-229635059#1"/>
    </person>
    <person id="ped197" depart="195.02" type="ped_pedestrian">
        <walk from="-186262688#2" to="306475946#2"/>
    </person>
    <person id="ped198" depart="196.01" type="ped_pedestrian">
        <walk from="186262708#0" to="-246989083#1"/>
    </person>
    <person id="ped199" depart="197.00" type="ped_pedestrian">
        <walk from="-158486424#18" to="229635045#0"/>
    </person>
    <person id="ped200" depart="197.99" type="ped_pedestrian">
        <walk from="122612374#0" to="246985856"/>
    </person>
    <person id="ped201" depart="198.98" type="ped_pedestrian">
        <walk from="122612374#4" to="306475943#0"/>
    </person>
    <person id="ped202" depart="199.97" type="ped_pedestrian">
        <walk from="186262687#15" to="-306475946#2"/>
    </person>
    <person id="ped203" depart="200.96" type="ped_pedestrian">
        <walk from="171865792#2" to="-806371404"/>
    </person>
    <person id="ped204" depart="201.95" type="ped_pedestrian">
        <walk from="133755130#4" to="-803758037"/>
    </person>
    <person id="ped205" depart="202.94" type="ped_pedestrian">
        <walk from="245441027#0" to="-706318012"/>
    </person>
    <person id="ped206" depart="203.93" type="ped_pedestrian">
        <walk from="186262709#1" to="-246985857"/>
    </person>
    <person id="ped207" depart="204.92" type="ped_pedestrian">
        <walk from="-236471187#1" to="-171867136#2"/>
    </person>
    <person id="ped208" depart="205.91" type="ped_pedestrian">
        <walk from="-186254736#9" to="-171867136#0"/>
    </person>
    <person id="ped209" depart="206.90" type="ped_pedestrian">
        <walk from="133755132#5" to="246985864#1"/>
    </person>
    <person id="ped210" depart="207.89" type="ped_pedestrian">
        <walk from="-186250792#0" to="-133637883#2"/>
    </person>
    <person id="ped211" depart="208.88" type="ped_pedestrian">
        <walk from="133755132#2" to="-246985864#1"/>
    </person>
    <person id="ped212" depart="209.87" type="ped_pedestrian">
        <walk from="806281522#1" to="133882910#0"/>
    </person>
    <person id="ped213" depart="210.86" type="ped_pedestrian">
        <walk from="186262688#2" to="-171870076#0"/>
    </person>
    <person id="ped214" depart="211.85" type="ped_pedestrian">
        <walk from="800610482#1" to="122612374#4"/>
    </person>
    <person id="ped215" depart="212.84" type="ped_pedestrian">
        <walk from="-806355598#1" to="-805231569"/>
    </person>
    <person id="ped216" depart="213.83" type="ped_pedestrian">
        <walk from="-186250797#0" to="-133755134#1"/>
    </person>
    <person id="ped217" depart="214.82" type="ped_pedestrian">
        <walk from="804217356#6" to="-809425539"/>
    </person>
    <person id="ped218" depart="215.81" type="ped_pedestrian">
        <walk from="706110058#4" to="-803243445#2"/>
    </person>
    <person id="ped219" depart="216.80" type="ped_pedestrian">
        <walk from="-135530186#2" to="171902842#0"/>
    </person>
    <person id="ped220" depart="217.79" type="ped_pedestrian">
        <walk from="135530186#25" to="-306475944#1"/>
    </person>
    <person id="ped221" depart="218.78" type="ped_pedestrian">
        <walk from="811935466" to="-171867135#0"/>
    </person>
    <person id="ped222" depart="219.77" type="ped_pedestrian">
        <walk from="246989083#0" to="171867136#3"/>
    </person>
    <person id="ped223" depart="220.76" type="ped_pedestrian">
        <walk from="306475941#2" to="-229635039#1"/>
    </person>
    <person id="ped224" depart="221.75" type="ped_pedestrian">
        <walk from="-805873583#1" to="800384386"/>
    </person>
    <person id="ped225" depart="222.74" type="ped_pedestrian">
        <walk from="171902831#2" to="171870075#1"/>
    </person>
    <person id="ped226" depart="223.73" type="ped_pedestrian">
        <walk from="236471189" to="805215217"/>
    </person>
    <person id="ped227" depart="224.72" type="ped_pedestrian">
        <walk from="-186262687#5" to="-186262688#0"/>
    </person>
    <person id="ped228" depart="225.71" type="ped_pedestrian">
        <walk from="-173655938#5" to="-135530186#21"/>
    </person>
    <person id="ped229" depart="226.70" type="ped_pedestrian">
        <walk from="-122612374#2" to="-806271839"/>
    </person>
    <person id="ped230" depart="227.69" type="ped_pedestrian">
        <walk from="171867126#5" to="-288926324#5"/>
    </person>
    <person id="ped231" depart="228.68" type="ped_pedestrian">