<?xml version="1.0" encoding="UTF-8"?>

<!-- generated on Wed Nov 25 19:48:26 2020 by Eclipse SUMO duarouter Version 1.7.0
<configuration xmlns:xsi="http://www.w3.org/2001/XMLSchema-instance" xsi:noNamespaceSchemaLocation="http://sumo.dlr.de/xsd/duarouterConfiguration.xsd">

    <input>
        <net-file value="/home/shashwath/Sumo/2020-11-25-19-48-17/osm.net.xml"/>
        <route-files value="/home/shashwath/Sumo/2020-11-25-19-48-17/osm.passenger.trips.xml"/>
    </input>

    <output>
        <output-file value="/home/shashwath/Sumo/2020-11-25-19-48-17/osm.passenger.trips.xml.tmp"/>
        <write-trips value="true"/>
    </output>

    <time>
        <begin value="0"/>
        <end value="3600"/>
    </time>

    <report>
        <no-warnings value="true"/>
        <ignore-errors value="true"/>
        <no-step-log value="true"/>
    </report>

</configuration>
-->

<routes xmlns:xsi="http://www.w3.org/2001/XMLSchema-instance" xsi:noNamespaceSchemaLocation="http://sumo.dlr.de/xsd/routes_file.xsd">
    <vType id="veh_passenger" vClass="passenger"/>
    <trip id="veh0" type="veh_passenger" depart="0.00" departLane="best" from="173655929#0" to="-133755125#0"/>
    <trip id="veh1" type="veh_passenger" depart="0.79" departLane="best" from="-246989098#0" to="-229635040#0"/>
    <trip id="veh2" type="veh_passenger" depart="1.58" departLane="best" from="246982749#0" to="186258457"/>
    <trip id="veh3" type="veh_passenger" depart="2.36" departLane="best" from="800610505#0" to="-158486424#7"/>
    <trip id="veh4" type="veh_passenger" depart="3.15" departLane="best" from="-803758037" to="-133755125#8"/>
    <trip id="veh5" type="veh_passenger" depart="3.94" departLane="best" from="-229635038#1" to="133755125#5"/>
    <trip id="veh6" type="veh_passenger" depart="4.73" departLane="best" from="-133755125#3" to="-186258455#2"/>
    <trip id="veh7" type="veh_passenger" depart="5.51" departLane="best" from="173655938#3" to="135530186#14"/>
    <trip id="veh8" type="veh_passenger" depart="6.30" departLane="best" from="-229635038#4" to="171867129"/>
    <trip id="veh9" type="veh_passenger" depart="7.09" departLane="best" from="374529122#0" to="-133637484#3"/>
    <trip id="veh10" type="veh_passenger" depart="7.88" departLane="best" from="374529120#2" to="229635039#0"/>
    <trip id="veh11" type="veh_passenger" depart="8.67" departLane="best" from="-714381034" to="-171904519#1"/>
    <trip id="veh12" type="veh_passenger" depart="9.45" departLane="best" from="805231223#0" to="-709873268"/>
    <trip id="veh13" type="veh_passenger" depart="10.24" departLane="best" from="-171865792#11" to="-171865797#0"/>
    <trip id="veh14" type="veh_passenger" depart="11.03" departLane="best" from="706734276#3" to="171870082"/>
    <trip id="veh15" type="veh_passenger" depart="11.82" departLane="best" from="374529120#6" to="236471195#1"/>
    <trip id="veh16" type="veh_passenger" depart="12.60" departLane="best" from="133882615#0" to="806271842#1"/>
    <trip id="veh17" type="veh_passenger" depart="13.39" departLane="best" from="-800610505#0" to="135530186#25"/>
    <trip id="veh18" type="veh_passenger" depart="14.18" departLane="best" from="374533525#5" to="171902839#3"/>
    <trip id="veh19" type="veh_passenger" depart="14.97" departLane="best" from="229635042#1" to="-133755132#3"/>
    <trip id="veh20" type="veh_passenger" depart="15.76" departLane="best" from="-229635043#0" to="-290520227"/>
    <trip id="veh21" type="veh_passenger" depart="16.54" departLane="best" from="-158486424#12" to="-229635046#1"/>
    <trip id="veh22" type="veh_passenger" depart="17.33" departLane="best" from="-171865797#5" to="-286440122#0"/>
    <trip id="veh23" type="veh_passenger" depart="18.12" departLane="best" from="173655926#3" to="-800610485#0"/>
    <trip id="veh24" type="veh_passenger" depart="18.91" departLane="best" from="-800610492#1" to="-186262687#8"/>
    <trip id="veh25" type="veh_passenger" depart="19.69" departLane="best" from="-246985859" to="803758035#0"/>
    <trip id="veh26" type="veh_passenger" depart="20.48" departLane="best" from="173655938#13" to="171870088#0"/>
    <trip id="veh27" type="veh_passenger" depart="21.27" departLane="best" from="-173655938#11" to="236471195#0"/>
    <trip id="veh28" type="veh_passenger" depart="22.06" departLane="best" from="-173655929#0" to="-800610505#2"/>
    <trip id="veh29" type="veh_passenger" depart="22.85" departLane="best" from="806355600" to="173655929#1"/>
    <trip id="veh30" type="veh_passenger" depart="23.63" departLane="best" from="158486424#11" to="186262687#5"/>
    <trip id="veh31" type="veh_passenger" depart="24.42" departLane="best" from="706734274#2" to="306475942#0"/>
    <trip id="veh32" type="veh_passenger" depart="25.21" departLane="best" from="-229635043#1" to="-133755126#10"/>
    <trip id="veh33" type="veh_passenger" depart="26.00" departLane="best" from="-374530997#0" to="-246985860#1"/>
    <trip id="veh34" type="veh_passenger" depart="26.78" departLane="best" from="-186262688#1" to="804217356#11"/>
    <trip id="veh35" type="veh_passenger" depart="27.57" departLane="best" from="800610483#2" to="-374529123#1"/>
    <trip id="veh36" type="veh_passenger" depart="28.36" departLane="best" from="186250480#3" to="-803243445#1"/>
    <trip id="veh37" type="veh_passenger" depart="29.15" departLane="best" from="803243449" to="-806281538"/>
    <trip id="veh38" type="veh_passenger" depart="29.93" departLane="best" from="-246985854#1" to="-229635299#7"/>
    <trip id="veh39" type="veh_passenger" depart="30.72" departLane="best" from="158486424#2" to="-246982755#1"/>
    <trip id="veh40" type="veh_passenger" depart="31.51" departLane="best" from="171867126#6" to="800610510"/>
    <trip id="veh41" type="veh_passenger" depart="32.30" departLane="best" from="-803290880" to="-229635038#2"/>
    <trip id="veh42" type="veh_passenger" depart="33.09" departLane="best" from="812556708" to="133755126#10"/>
    <trip id="veh43" type="veh_passenger" depart="33.87" departLane="best" from="-171865791" to="-133755132#5"/>
    <trip id="veh44" type="veh_passenger" depart="34.66" departLane="best" from="-171867127#1" to="171904516#6"/>
    <trip id="veh45" type="veh_passenger" depart="35.45" departLane="best" from="373896382#21" to="-804207571"/>
    <trip id="veh46" type="veh_passenger" depart="36.24" departLane="best" from="-133882909#3" to="-800610509#1"/>
    <trip id="veh47" type="veh_passenger" depart="37.02" departLane="best" from="812556705" to="133882604#5"/>
    <trip id="veh48" type="veh_passenger" depart="37.81" departLane="best" from="806271841#0" to="800384381"/>
    <trip id="veh49" type="veh_passenger" depart="38.60" departLane="best" from="-133637487#5" to="229635299#2"/>
    <trip id="veh50" type="veh_passenger" depart="39.39" departLane="best" from="186262687#12" to="133882615#1"/>
    <trip id="veh51" type="veh_passenger" depart="40.18" departLane="best" from="-246985859" to="173655929#3"/>
    <trip id="veh52" type="veh_passenger" depart="40.96" departLane="best" from="-171867129" to="-805231223#1"/>
    <trip id="veh53" type="veh_passenger" depart="41.75" departLane="best" from="-806271848" to="805215218"/>
    <trip id="veh54" type="veh_passenger" depart="42.54" departLane="best" from="800610483#2" to="-246985851"/>
    <trip id="veh55" type="veh_passenger" depart="43.33" departLane="best" from="133755118#5" to="-186250480#2"/>
    <trip id="veh56" type="veh_passenger" depart="44.11" departLane="best" from="803243446" to="800384392"/>
    <trip id="veh58" type="veh_passenger" depart="45.69" departLane="best" from="171870088#0" to="-171904516#7"/>
    <trip id="veh59" type="veh_passenger" depart="46.48" departLane="best" from="286440385#4" to="133882909#0"/>
    <trip id="veh61" type="veh_passenger" depart="48.05" departLane="best" from="-122612356#0" to="-668986454#4"/>
    <trip id="veh62" type="veh_passenger" depart="48.84" departLane="best" from="-133637887#2" to="803758024"/>
    <trip id="veh63" type="veh_passenger" depart="49.63" departLane="best" from="800610483#6" to="578203893"/>
    <trip id="veh64" type="veh_passenger" depart="50.42" departLane="best" from="-306475951" to="-133882611#6"/>
    <trip id="veh65" type="veh_passenger" depart="51.20" departLane="best" from="800610483#5" to="804217356#4"/>
    <trip id="veh66" type="veh_passenger" depart="51.99" departLane="best" from="-158486424#5" to="133637486#1"/>
    <trip id="veh67" type="veh_passenger" depart="52.78" departLane="best" from="-135530186#16" to="286440123#3"/>
    <trip id="veh68" type="veh_passenger" depart="53.57" departLane="best" from="288926324#2" to="-171870084#0"/>
    <trip id="veh69" type="veh_passenger" depart="54.36" departLane="best" from="-817124519" to="135530186#21"/>
    <trip id="veh70" type="veh_passenger" depart="55.14" departLane="best" from="-246985854#1" to="800610482#0"/>
    <trip id="veh71" type="veh_passenger" depart="55.93" departLane="best" from="-804207575" to="-186262688#2"/>
    <trip id="veh72" type="veh_passenger" depart="56.72" departLane="best" from="133882909#0" to="236471195#1"/>
    <trip id="veh73" type="veh_passenger" depart="57.51" departLane="best" from="-186258462#0" to="-373896382#21"/>
    <trip id="veh74" type="veh_passenger" depart="58.29" departLane="best" from="811935468" to="173655938#3"/>
    <trip id="veh75" type="veh_passenger" depart="59.08" departLane="best" from="-805873583#1" to="133755130#0"/>
    <trip id="veh76" type="veh_passenger" depart="59.87" departLane="best" from="-171867136#3" to="-229635040#2"/>
    <trip id="veh78" type="veh_passenger" depart="61.45" departLane="best" from="-135530186#19" to="171904519#2"/>
    <trip id="veh79" type="veh_passenger" depart="62.23" departLane="best" from="-229635043#1" to="800669881"/>
    <trip id="veh80" type="veh_passenger" depart="63.02" departLane="best" from="800384379" to="-135530186#19"/>
    <trip id="veh81" type="veh_passenger" depart="63.81" departLane="best" from="-229635056#1" to="186254736#4"/>
    <trip id="veh82" type="veh_passenger" depart="64.60" departLane="best" from="-186263433#1" to="-171870086#0"/>
    <trip id="veh83" type="veh_passenger" depart="65.38" departLane="best" from="803758034" to="171865792#2"/>
    <trip id="veh84" type="veh_passenger" depart="66.17" departLane="best" from="-812556705" to="306475947#0"/>
    <trip id="veh85" type="veh_passenger" depart="66.96" departLane="best" from="374529120#6" to="-186254736#0"/>
    <trip id="veh86" type="veh_passenger" depart="67.75" departLane="best" from="-171865797#0" to="-805215219"/>
    <trip id="veh87" type="veh_passenger" depart="68.54" departLane="best" from="-804207576" to="-806366425"/>
    <trip id="veh88" type="veh_passenger" depart="69.32" departLane="best" from="236471195#0" to="186258453"/>
    <trip id="veh89" type="veh_passenger" depart="70.11" departLane="best" from="806290694" to="-171865797#11"/>
    <trip id="veh91" type="veh_passenger" depart="71.69" departLane="best" from="800384382" to="-236471187#1"/>
    <trip id="veh92" type="veh_passenger" depart="72.47" departLane="best" from="-186254736#0" to="-806271841#1"/>
    <trip id="veh93" type="veh_passenger" depart="73.26" departLane="best" from="-236471188#1" to="803758015#0"/>
    <trip id="veh94" type="veh_passenger" depart="74.05" departLane="best" from="-806271837#5" to="800384381"/>
    <trip id="veh95" type="veh_passenger" depart="74.84" departLane="best" from="135530186#21" to="-133882604#3"/>
    <trip id="veh96" type="veh_passenger" depart="75.62" departLane="best" from="817230302" to="668986454#2"/>
    <trip id="veh97" type="veh_passenger" depart="76.41" departLane="best" from="806271839" to="803758019"/>
    <trip id="veh98" type="veh_passenger" depart="77.20" departLane="best" from="709859523#0" to="-173655929#4"/>
    <trip id="veh99" type="veh_passenger" depart="77.99" departLane="best" from="133637486#0" to="-186263433#0"/>
    <trip id="veh101" type="veh_passenger" depart="79.56" departLane="best" from="-800610505#1" to="806290696#0"/>
    <trip id="veh102" type="veh_passenger" depart="80.35" departLane="best" from="-246985854#1" to="306475946#4"/>
    <trip id="veh103" type="veh_passenger" depart="81.14" departLane="best" from="-806271850" to="-804207575"/>
    <trip id="veh105" type="veh_passenger" depart="82.71" departLane="best" from="-171904519#0" to="-306475942#2"/>
    <trip id="veh106" type="veh_passenger" depart="83.50" departLane="best" from="806271839" to="171865797#6"/>
    <trip id="veh107" type="veh_passenger" depart="84.29" departLane="best" from="135530186#0" to="246985864#1"/>
    <trip id="veh108" type="veh_passenger" depart="85.08" departLane="best" from="-133882611#4" to="171867126#6"/>
    <trip id="veh109" type="veh_passenger" depart="85.87" departLane="best" from="133755125#1" to="714381034"/>
    <trip id="veh110" type="veh_passenger" depart="86.65" departLane="best" from="-171904523" to="805231569"/>
    <trip id="veh111" type="veh_passenger" depart="87.44" departLane="best" from="-158486424#12" to="-186250797#0"/>
    <trip id="veh112" type="veh_passenger" depart="88.23" departLane="best" from="171867136#0" to="186258455#2"/>
    <trip id="veh113" type="veh_passenger" depart="89.02" departLane="best" from="-229635054#0" to="-171867136#1"/>
    <trip id="veh114" type="veh_passenger" depart="89.80" departLane="best" from="800610499" to="-229635299#6"/>
    <trip id="veh115" type="veh_passenger" depart="90.59" departLane="best" from="171867135#1" to="171902839#4"/>
    <trip id="veh116" type="veh_passenger" depart="91.38" departLane="best" from="-803758034" to="171867126#5"/>
    <trip id="veh117" type="veh_passenger" depart="92.17" departLane="best" from="133755132#2" to="803758032"/>
    <trip id="veh118" type="veh_passenger" depart="92.96" departLane="best" from="-186262687#11" to="229635058"/>
    <trip id="veh119" type="veh_passenger" depart="93.74" departLane="best" from="-229635056#2" to="-803243445#1"/>
    <trip id="veh120" type="veh_passenger" depart="94.53" departLane="best" from="186254736#9" to="-306475944#1"/>
    <trip id="veh121" type="veh_passenger" depart="95.32" departLane="best" from="-374530997#1" to="246989087#0"/>
    <trip id="veh122" type="veh_passenger" depart="96.11" departLane="best" from="-135530186#21" to="-806281534"/>
    <trip id="veh123" type="veh_passenger" depart="96.89" departLane="best" from="-135530186#22" to="-186263426#1"/>
    <trip id="veh124" type="veh_passenger" depart="97.68" departLane="best" from="-246985854#1" to="803758030"/>
    <trip id="veh125" type="veh_passenger" depart="98.47" departLane="best" from="-800610492#0" to="-171904523"/>
    <trip id="veh126" type="veh_passenger" depart="99.26" departLane="best" from="668986453#2" to="229635042#0"/>
    <trip id="veh127" type="veh_passenger" depart="100.05" departLane="best" from="171902831#0" to="806355598#1"/>
    <trip id="veh128" type="veh_passenger" depart="100.83" departLane="best" from="186250480#0" to="-133637486#0"/>
    <trip id="veh129" type="veh_passenger" depart="101.62" departLane="best" from="374532416#4" to="-306475944#0"/>
    <trip id="veh130" type="veh_passenger" depart="102.41" departLane="best" from="186250797#1" to="804207571"/>
    <trip id="veh131" type="veh_passenger" depart="103.20" departLane="best" from="-171870088#0" to="-171867131#1"/>
    <trip id="veh132" type="veh_passenger" depart="103.98" departLane="best" from="-171867126#6" to="135530186#6"/>
    <trip id="veh133" type="veh_passenger" depart="104.77" departLane="best" from="-246989083#2" to="171870084#2"/>
    <trip id="veh134" type="veh_passenger" depart="105.56" departLane="best" from="229635059#1" to="-186262687#10"/>
    <trip id="veh135" type="veh_passenger" depart="106.35" departLane="best" from="173655926#1" to="-246985853"/>
    <trip id="veh136" type="veh_passenger" depart="107.14" departLane="best" from="133637487#3" to="800669880#1"/>
    <trip id="veh137" type="veh_passenger" depart="107.92" departLane="best" from="706734276#1" to="-171865792#11"/>
    <trip id="veh138" type="veh_passenger" depart="108.71" departLane="best" from="-804207576" to="-286438371#1"/>
    <trip id="veh139" type="veh_passenger" depart="109.50" departLane="best" from="-122612374#3" to="290646812#1"/>
    <trip id="veh140" type="veh_passenger" depart="110.29" departLane="best" from="173655926#5" to="-246982755#0"/>
    <trip id="veh141" type="veh_passenger" depart="111.07" departLane="best" from="246985851" to="135530186#25"/>
    <trip id="veh142" type="veh_passenger" depart="111.86" departLane="best" from="-805215212" to="-133637487#2"/>
    <trip id="veh143" type="veh_passenger" depart="112.65" departLane="best" from="-135530186#4" to="800610489"/>
    <trip id="veh144" type="veh_passenger" depart="113.44" departLane="best" from="800669878" to="135530186#15"/>
    <trip id="veh145" type="veh_passenger" depart="114.23" departLane="best" from="668986454#0" to="171867126#2"/>
    <trip id="veh146" type="veh_passenger" depart="115.01" departLane="best" from="-171902843#1" to="-171870081#1"/>
    <trip id="veh147" type="veh_passenger" depart="115.80" departLane="best" from="-373896382#0" to="800669859"/>
    <trip id="veh148" type="veh_passenger" depart="116.59" departLane="best" from="374529112#2" to="800384380"/>
    <trip id="veh149" type="veh_passenger" depart="117.38" departLane="best" from="800669859" to="-186262687#9"/>
    <trip id="veh151" type="veh_passenger" depart="118.95" departLane="best" from="-803758014" to="171902841#1"/>
    <trip id="veh152" type="veh_passenger" depart="119.74" departLane="best" from="-171904519#0" to="803758026#0"/>
    <trip id="veh153" type="veh_passenger" depart="120.53" departLane="best" from="800384387#0" to="806271847"/>
    <trip id="veh154" type="veh_passenger" depart="121.31" departLane="best" from="374529123#1" to="800610487#0"/>
    <trip id="veh155" type="veh_passenger" depart="122.10" departLane="best" from="-133755125#0" to="246982749#0"/>
    <trip id="veh156" type="veh_passenger" depart="122.89" departLane="best" from="-706734275#3" to="803758027"/>
    <trip id="veh157" type="veh_passenger" depart="123.68" departLane="best" from="374529120#0" to="800384386"/>
    <trip id="veh158" type="veh_passenger" depart="124.47" departLane="best" from="374529123#1" to="-246985859"/>
    <trip id="veh159" type="veh_passenger" depart="125.25" departLane="best" from="800610481" to="800384377"/>
    <trip id="veh160" type="veh_passenger" depart="126.04" departLane="best" from="-229635039#2" to="374532416#3"/>
    <trip id="veh161" type="veh_passenger" depart="126.83" departLane="best" from="-806290693#1" to="-306475947#2"/>
    <trip id="veh162" type="veh_passenger" depart="127.62" departLane="best" from="374529112#1" to="-229635042#1"/>
    <trip id="veh163" type="veh_passenger" depart="128.40" departLane="best" from="-133755121" to="-186254736#6"/>
    <trip id="veh165" type="veh_passenger" depart="129.98" departLane="best" from="806271837#6" to="-286440123#1"/>
    <trip id="veh166" type="veh_passenger" depart="130.77" departLane="best" from="173655929#4" to="-803333876"/>
    <trip id="veh167" type="veh_passenger" depart="131.56" departLane="best" from="804207575" to="-171867131#1"/>
    <trip id="veh168" type="veh_passenger" depart="132.34" departLane="best" from="806271840#1" to="-186250480#2"/>
    <trip id="veh169" type="veh_passenger" depart="133.13" departLane="best" from="806271834" to="-246985856"/>
    <trip id="veh170" type="veh_passenger" depart="133.92" departLane="best" from="-171867126#8" to="-805231223#0"/>
    <trip id="veh171" type="veh_passenger" depart="134.71" departLane="best" from="236471193#1" to="-373896382#8"/>
    <trip id="veh172" type="veh_passenger" depart="135.49" departLane="best" from="171870085#0" to="133755126#14"/>
    <trip id="veh173" type="veh_passenger" depart="136.28" departLane="best" from="-800669861" to="171865797#2"/>
    <trip id="veh174" type="veh_passenger" depart="137.07" departLane="best" from="-245441027#2" to="229635045#3"/>
    <trip id="veh175" type="veh_passenger" depart="137.86" departLane="best" from="-122612374#0" to="803758018"/>
    <trip id="veh176" type="veh_passenger" depart="138.65" departLane="best" from="133882615#4" to="229635299#0"/>
    <trip id="veh177" type="veh_passenger" depart="139.43" departLane="best" from="246985853" to="186254736#7"/>
    <trip id="veh178" type="veh_passenger" depart="140.22" departLane="best" from="-800610484" to="-135530186#18"/>
    <trip id="veh179" type="veh_passenger" depart="141.01" departLane="best" from="186250798" to="-706734274#2"/>
    <trip id="veh180" type="veh_passenger" depart="141.80" departLane="best" from="-373896382#9" to="706734276#4"/>
    <trip id="veh181" type="veh_passenger" depart="142.58" departLane="best" from="229635299#1" to="-306475945"/>
    <trip id="veh182" type="veh_passenger" depart="143.37" departLane="best" from="-373896382#13" to="-803758016"/>
    <trip id="veh184" type="veh_passenger" depart="144.95" departLane="best" from="-171870081#1" to="-803758035#1"/>
    <trip id="veh186" type="veh_passenger" depart="146.52" departLane="best" from="800669875" to="171902837#0"/>
    <trip id="veh187" type="veh_passenger" depart="147.31" departLane="best" from="-306475946#0" to="135530186#19"/>
    <trip id="veh188" type="veh_passenger" depart="148.10" departLane="best" from="-122612356#0" to="-288926324#4"/>
    <trip id="veh189" type="veh_passenger" depart="148.89" departLane="best" from="-805215217" to="171865797#8"/>
    <trip id="veh190" type="veh_passenger" depart="149.67" departLane="best" from="186250480#2" to="-806355598#3"/>
    <trip id="veh191" type="veh_passenger" depart="150.46" departLane="best" from="-806271837#2" to="-186263433#0"/>
    <trip id="veh192" type="veh_passenger" depart="151.25" departLane="best" from="-812556707#0" to="800669863"/>
    <trip id="veh193" type="veh_passenger" depart="152.04" departLane="best" from="374529112#2" to="-173655938#1"/>
    <trip id="veh194" type="veh_passenger" depart="152.83" departLane="best" from="-158486424#3" to="133755126#7"/>
    <trip id="veh195" type="veh_passenger" depart="153.61" departLane="best" from="171904523" to="-709859523#0"/>
    <trip id="veh196" type="veh_passenger" depart="154.40" departLane="best" from="374532416#6" to="246989083#3"/>
    <trip id="veh197" type="veh_passenger" depart="155.19" departLane="best" from="186258452" to="-229635040#2"/>
    <trip id="veh198" type="veh_passenger" depart="155.98" departLane="best" from="-229635299#4" to="-817124519"/>
    <trip id="veh199" type="veh_passenger" depart="156.76" departLane="best" from="709873268" to="-135530186#21"/>
    <trip id="veh200" type="veh_passenger" depart="157.55" departLane="best" from="-803758027" to="171904519#0"/>
    <trip id="veh201" type="veh_passenger" depart="158.34" departLane="best" from="-186254736#8" to="229635038#3"/>
    <trip id="veh202" type="veh_passenger" depart="159.13" departLane="best" from="133637885" to="-229635299#2"/>
    <trip id="veh203" type="veh_passenger" depart="159.92" departLane="best" from="186250480#4" to="-133637484#2"/>
    <trip id="veh204" type="veh_passenger" depart="160.70" departLane="best" from="246989083#2" to="290520227"/>
    <trip id="veh205" type="veh_passenger" depart="161.49" departLane="best" from="-171867126#5" to="-804207582"/>
    <trip id="veh206" type="veh_passenger" depart="162.28" departLane="best" from="-173655938#6" to="805231223#1"/>
    <trip id="veh207" type="veh_passenger" depart="163.07" departLane="best" from="133755130#1" to="-133882604#3"/>
    <trip id="veh208" type="veh_passenger" depart="163.85" departLane="best" from="-236471188#0" to="709859523#0"/>
    <trip id="veh209" type="veh_passenger" depart="164.64" departLane="best" from="-806281522#1" to="374529118#7"/>
    <trip id="veh210" type="veh_passenger" depart="165.43" departLane="best" from="186254736#1" to="806355598#2"/>
    <trip id="veh211" type="veh_passenger" depart="166.22" departLane="best" from="171867136#0" to="805215211"/>
    <trip id="veh212" type="veh_passenger" depart="167.00" departLane="best" from="800610502" to="171902835#0"/>
    <trip id="veh213" type="veh_passenger" depart="167.79" departLane="best" from="229635299#0" to="133755125#4"/>
    <trip id="veh214" type="veh_passenger" depart="168.58" departLane="best" from="543878957" to="135530186#18"/>
    <trip id="veh215" type="veh_passenger" depart="169.37" departLane="best" from="800610509#3" to="246985856"/>
    <trip id="veh216" type="veh_passenger" depart="170.16" departLane="best" from="-812556708" to="-246982749#0"/>
    <trip id="veh217" type="veh_passenger" depart="170.94" departLane="best" from="-229635299#8" to="173655926#6"/>
    <trip id="veh218" type="veh_passenger" depart="171.73" departLane="best" from="288926324#2" to="133755130#6"/>
    <trip id="veh219" type="veh_passenger" depart="172.52" departLane="best" from="171904516#5" to="-246989092#1"/>
    <trip id="veh220" type="veh_passenger" depart="173.31" departLane="best" from="-158486424#0" to="-288926324#3"/>
    <trip id="veh221" type="veh_passenger" depart="174.09" departLane="best" from="-246989083#1" to="-668986453#0"/>
    <trip id="veh222" type="veh_passenger" depart="174.88" departLane="best" from="133882909#2" to="-171902835#1"/>
    <trip id="veh223" type="veh_passenger" depart="175.67" departLane="best" from="-229635045#2" to="186276679#1"/>
    <trip id="veh224" type="veh_passenger" depart="176.46" departLane="best" from="229635043#2" to="-133882910#0"/>
    <trip id="veh225" type="veh_passenger" depart="177.25" departLane="best" from="-803758015#1" to="135530186#1"/>
    <trip id="veh226" type="veh_passenger" depart="178.03" departLane="best" from="-803758029#0" to="-186262687#4"/>
    <trip id="veh227" type="veh_passenger" depart="178.82" departLane="best" from="-803758035#1" to="800669880#1"/>
    <trip id="veh228" type="veh_passenger" depart="179.61" departLane="best" from="171867126#5" to="229635038#1"/>
    <trip id="veh229" type="veh_passenger" depart="180.40" departLane="best" from="720452476" to="288926324#2"/>
    <trip id="veh230" type="veh_passenger" depart="181.18" departLane="best" from="-800610505#4" to="-133637484#2"/>
    <trip id="veh231" type="veh_passenger" depart="181.97" departLane="best" from="-800384387#2" to="246989092#0"/>
    <trip id="veh232" type="veh_passenger" depart="182.76" departLane="best" from="715685821" to="805215217"/>
    <trip id="veh233" type="veh_passenger" depart="183.55" departLane="best" from="-803758034" to="246985864#1"/>
    <trip id="veh234" type="veh_passenger" depart="184.34" departLane="best" from="135530186#16" to="171870081#1"/>
    <trip id="veh235" type="veh_passenger" depart="185.12" departLane="best" from="-805231225" to="-133755125#7"/>
    <trip id="veh236" type="veh_passenger" depart="185.91" departLane="best" from="-709859523#1" to="186262687#0"/>
    <trip id="veh237" type="veh_passenger" depart="186.70" departLane="best" from="-803758011#1" to="-173655929#2"/>
    <trip id="veh238" type="veh_passenger" depart="187.49" departLane="best" from="-806371404" to="-171870081#1"/>
    <trip id="veh239" type="veh_passenger" depart="188.27" departLane="best" from="171902843#0" to="-133755125#3"/>
    <trip id="veh240" type="veh_passenger" depart="189.06" departLane="best" from="-803243444#0" to="158486424#7"/>
    <trip id="veh241" type="veh_passenger" depart="189.85" departLane="best" from="-133755125#3" to="173655932#0"/>
    <trip id="veh242" type="veh_passenger" depart="190.64" departLane="best" from="-171902829#1" to="-806290695"/>
    <trip id="veh243" type="veh_passenger" depart="191.43" departLane="best" from="-186262688#2" to="-706318011"/>
    <trip id="veh244" type="veh_passenger" depart="192.21" departLane="best" from="286440385#0" to="-800610505#1"/>
    <trip id="veh245" type="veh_passenger" depart="193.00" departLane="best" from="246989087#0" to="646246743"/>
    <trip id="veh246" type="veh_passenger" depart="193.79" departLane="best" from="-236471195#0" to="-158486424#15"/>
    <trip id="veh247" type="veh_passenger" depart="194.58" departLane="best" from="-133637887#2" to="133882909#0"/>
    <trip id="veh248" type="veh_passenger" depart="195.36" departLane="best" from="817230303" to="-800384386"/>
    <trip id="veh249" type="veh_passenger" depart="196.15" departLane="best" from="173655938#3" to="306475946#0"/>
    <trip id="veh250" type="veh_passenger" depart="196.94" departLane="best" from="173655938#6" to="246989092#1"/>
    <trip id="veh251" type="veh_passenger" depart="197.73" departLane="best" from="804258386" to="-186258456"/>
    <trip id="veh252" type="veh_passenger" depart="198.52" departLane="best" from="-133755118#0" to="-171904516#6"/>
    <trip id="veh253" type="veh_passenger" depart="199.30" departLane="best" from="-171870076#1" to="186254736#5"/>
    <trip id="veh254" type="veh_passenger" depart="200.09" departLane="best" from="158486424#6" to="-229635038#0"/>
    <trip id="veh255" type="veh_passenger" depart="200.88" departLane="best" from="229635039#2" to="288926324#4"/>
    <trip id="veh256" type="veh_passenger" depart="201.67" departLane="best" from="-173655932#2" to="171870086#0"/>
    <trip id="veh257" type="veh_passenger" depart="202.45" departLane="best" from="246985864#1" to="-171867131#0"/>
    <trip id="veh258" type="veh_passenger" depart="203.24" departLane="best" from="374532416#9" to="806271837#1"/>
    <trip id="veh259" type="veh_passenger" depart="204.03" departLane="best" from="-171867126#8" to="-133755125#1"/>
    <trip id="veh260" type="veh_passenger" depart="204.82" departLane="best" from="-373896382#22" to="186258459"/>
    <trip id="veh261" type="veh_passenger" depart="205.61" departLane="best" from="805231223#1" to="-803243446"/>
    <trip id="veh262" type="veh_passenger" depart="206.39" departLane="best" from="229635056#2" to="-135530186#8"/>