<?xml version="1.0" encoding="UTF-8"?>

<!-- generated on Wed Nov 25 19:48:33 2020 by Eclipse SUMO duarouter Version 1.7.0
<configuration xmlns:xsi="http://www.w3.org/2001/XMLSchema-instance" xsi:noNamespaceSchemaLocation="http://sumo.dlr.de/xsd/duarouterConfiguration.xsd">

    <input>
        <net-file value="/home/shashwath/Sumo/2020-11-25-19-48-17/osm.net.xml"/>
        <route-files value="/home/shashwath/Sumo/2020-11-25-19-48-17/osm.pedestrian.trips.xml"/>
    </input>

    <output>
        <output-file value="/home/shashwath/Sumo/2020-11-25-19-48-17/osm.pedestrian.rou.xml"/>
        <alternatives-output value="/home/shashwath/Sumo/2020-11-25-19-48-17/osm.pedestrian.rou.alt.xml"/>
    </output>

    <time>
        <begin value="0"/>
        <end value="3600"/>
    </time>

    <report>
        <no-warnings value="true"/>
        <ignore-errors value="true"/>
        <no-step-log value="true"/>
    </report>

</configuration>
-->

<routes xmlns:xsi="http://www.w3.org/2001/XMLSchema-instance" xsi:noNamespaceSchemaLocation="http://sumo.dlr.de/xsd/routes_file.xsd">
    <vType id="ped_pedestrian" vClass="pedestrian"/>
    <person id="ped0" type="ped_pedestrian" depart="0.00">
        <walk edges="171904519#3 -171904521 -171867126#0 -171904516#0 -158486424#9 -158486424#8 -158486424#7 -158486424#6 -158486424#5 -158486424#4 -158486424#3 -158486424#2 -133755125#9 -133755125#8 -133755125#7 -133755125#6 -133755125#5 -133755125#4 -133755125#3 -133755125#2"/>
    </person>
    <person id="ped1" type="ped_pedestrian" depart="0.99">
        <walk edges="-246985864#3 -133755130#0 -135530186#6 135530186#4 229635039#0 229635046#0 229635046#1 229635046#2 -229635038#4 -229635038#3 -229635038#2"/>
    </person>
    <person id="ped2" type="ped_pedestrian" depart="1.98">
        <walk edges="800610510 -306475946#1 -306475946#2 713329441 -306475947#1 -306475947#2 713329442 186258462#1 306475945 800610509#1 800610509#2 -715685826#0 -171867135#0 -171867135#1 -171865797#0 -171865797#1 -171865797#2 -171865797#3 -171865797#4 -171865797#5 -171865797#6 -171865797#7 -171865797#8 -236471196 288926324#0 288926324#1 288926324#2 288926324#3 288926324#4 288926324#5 706734276#2 -171867126#8 -171867126#7 -171867126#6 -171867126#5 171867126#3 171867126#2 171867126#1 171867126#0 171904516#0 -158486424#9 -158486424#8 -158486424#7 -158486424#6 -158486424#5 -158486424#4 -158486424#3"/>
    </person>
    <person id="ped3" type="ped_pedestrian" depart="2.97">
        <walk edges="-803758032 173655938#2 173655938#3 173655938#4 173655938#5 173655938#6 173655938#8 173655938#9 173655938#10 173655938#11 173655926#1 173655926#2 -173655926#3 -186250792#1 -186250480#5 -186250480#4 -186250480#3 -133637884 133637883#2 286437949 -286438371#0 -803758021 -171870084#0 -171870084#1 -171870084#2 -171870084#3 246982749#2 246982749#1 246982749#0 158486424#15 158486424#14 158486424#13 -158486424#12 171902839#0 171902839#1 171902839#2 171902839#3 171902839#4 171867126#8 706734276#2 288926324#5 288926324#4 288926324#3 288926324#2 288926324#1 288926324#0 -236471196 -171865797#8 -171865797#7 -171865797#6 -171865797#5 -171865797#4 -171865797#3 -171865797#2 -171865797#1 -171865797#0 -171867135#1 -171867135#0 -715685826#0 800610509#2 800610509#1 306475945 186258462#1 186258462#0 133755126#13 133755126#12 133755126#10 133755126#9 133755126#8 133755126#7 133755126#6 133755126#5 133755126#4 133755126#3 -133755126#2 -133755126#1 -133755126#0"/>
    </person>
    <person id="ped4" type="ped_pedestrian" depart="3.96">
        <walk edges="-186263433#1 186263433#2 -706734275#1 -706734275#0 706734276#1 -288926324#5 -288926324#4 -288926324#3 -288926324#2 -288926324#1 -288926324#0 -236471196 -171865797#8 -171865797#7 -171865797#6 -171865797#5 -171865797#4 -171865797#3 -171865797#2 -171865797#1 -171865797#0 -171867135#1 -171867135#0 -715685826#0 800610509#2 800610509#1 306475945 186258462#1 186258462#0 133755126#13 133755126#12 133755126#10 133755126#9 133755126#8 133755126#7 133755126#6 133755126#5 133755126#4 133755126#3 -133755126#2 -133755126#1 133755118#0"/>
    </person>
    <person id="ped5" type="ped_pedestrian" depart="4.95">
        <walk edges="-133755125#4 -133755125#5 -133755125#6 -133755125#7 -133755125#8 -133755125#9 -158486424#2 -158486424#3 -158486424#4 -158486424#5 -158486424#6 -158486424#7 -158486424#8 -158486424#9 171904516#0 171867126#0 171867126#1 171867126#2 171867126#3 -171867126#5 -171867126#6 -171867126#7 -171867126#8 706734276#2 288926324#5 288926324#4 288926324#3 288926324#2 288926324#1 288926324#0 -236471196 -171865797#8 -171865797#7 -171865797#6 -171865797#5 -171865797#4 -171865797#3 -171865797#2 -171865797#1 -171865797#0 -171867135#1 -171867135#0 -715685826#0 800610509#2 800610509#1 -306475945 -186258462#1 -186258462#0"/>
    </person>
    <person id="ped6" type="ped_pedestrian" depart="5.94">
        <walk edges="-186276679#0 -186254736#8 -713329439 713329440 306475947#0 306475947#1 -306475947#2 713329442 186258462#1 306475945 800610509#1 800610509#2 -715685826#0 -171867135#0 -171867135#1 -171865797#0 -171865797#1 -171865797#2 -171865797#3 171865797#4 171865797#5 171865797#6"/>
    </person>
    <person id="ped8" type="ped_pedestrian" depart="7.92">
        <walk edges="374530997#0 -374530997#0 133755118#5 133755118#4 133755118#3 706318011 186254733#0 -133755126#6 -133755126#7 133755126#8 133755126#9 133755126#10 133755126#12 133755126#13 186258462#0 186258462#1 306475945 800610509#1 800610509#2 -715685826#0 -171867135#0 -171867135#1 -171865797#0 -171865797#1 -171865797#2 -171865797#3 -171865797#4 -171865797#5 -171865797#6 -171865797#7 -171865797#8 -236471196 236471188#1 613492737 290646812#1 -800669879 -186262687#15 -290646813 613492733 -186262687#8 -186262687#7 186262693"/>
    </person>
    <person id="ped9" type="ped_pedestrian" depart="8.91">
        <walk edges="-709873268 709873267 706110058#2 706110058#1 706172391 -133755130#2 -133755130#3 -133755130#4 -133755130#5 -133755130#6 -158486424#6 171904516#7 171904516#6 171904516#5 -171904520"/>
    </person>
    <person id="ped10" type="ped_pedestrian" depart="9.90">
        <walk edges="-171865791 171865792#5 -171865792#5"/>
    </person>
    <person id="ped11" type="ped_pedestrian" depart="10.89">
        <walk edges="714381033 713329442 186258462#1 306475945 800610509#1 800610509#2 -715685826#0 -171867135#0 -171867135#1 -171865797#0 -171865797#1 -171865800 -171865792#5 171867132"/>
    </person>
    <person id="ped12" type="ped_pedestrian" depart="11.88">
        <walk edges="374531000 -186258773#0 -133755126#12 -133755126#13 -186258462#0 -186258462#1 -306475945 800610509#1 800610509#2 -715685826#0 -171867135#0 -171867135#1 -171865797#0 -171865797#1 -171865797#2 -171865797#3 -171865797#4 -171865797#5 -171865797#6 -171865797#7 -171865797#8 -236471196 288926324#0 288926324#1 288926324#2 288926324#3 288926324#4 288926324#5 706734276#2 -171867126#8 -171867126#7 -171867126#6 -171867126#5 171867126#3 171867126#2 171867126#1 171867126#0 171904516#0 -158486424#9 -158486424#8 -158486424#7 -158486424#6 -158486424#5 -158486424#4 229635059#0"/>
    </person>
    <person id="ped13" type="ped_pedestrian" depart="12.87">
        <walk edges="-800610499 -171867133 -171865797#8 -236471196 288926324#0 288926324#1 288926324#2 288926324#3 288926324#4 288926324#5 706734276#2 -171867126#8 -171867126#7 -171867126#6 -171867126#5 171867126#3 171867126#2 171867126#1 171867126#0 171904516#0 -158486424#9 -158486424#8 -158486424#7 -158486424#6 -158486424#5 -158486424#4 -158486424#3 -158486424#2 -133755125#9 -133755125#8 -133755125#7 -133755125#6 -133755125#5 -133755125#4 -133755125#3 -133755125#2 -133755125#1 -133755125#0 -805231223#1 -805231223#0 229635299#2 -229635299#3 -229635299#4 -229635299#5 -229635299#6 -229635299#7 229635299#8 -133882611#2 -133882611#1 -133882611#0 -668986453#2 -668986453#1 -668986453#0 -668986454#0 -668986454#1 -668986454#2 -668986454#3 -668986454#4 -806271837#7 -806271837#6 -806271833 -800610483#0 133882909#1 133882909#2"/>
    </person>
    <person id="ped14" type="ped_pedestrian" depart="13.86">
        <walk edges="706318005 706318004#0 133755126#13 186258462#0 186258462#1 306475945 800610509#1 800610509#2 -715685826#0 -171867135#0 -171867135#1 -171865797#0 -171865797#1 -171865797#2 -171865797#3 -171865797#4 -171865797#5 -171865797#6 -171865797#7 -171865797#8 -236471196 288926324#0 288926324#1 288926324#2 288926324#3 288926324#4 288926324#5 706734276#2 171867126#8 171902839#4 171902839#3 171902839#2 171902839#1 171902839#0 -158486424#12 158486424#13 158486424#14 158486424#15 246982749#0 246982749#1 246982749#2 -171870075#0 171870088#0 171870088#1"/>
    </person>
    <person id="ped15" type="ped_pedestrian" depart="14.85">
        <walk edges="800384387#2 -800384386 -171867127#1 171867127#2 -171865792#12 -171865792#11 -171865792#10 -171865792#8 -171865792#7 171865787"/>
    </person>
    <person id="ped16" type="ped_pedestrian" depart="15.84">
        <walk edges="186263433#0 186263433#1 186263433#2 -706734275#1 706734275#0 706734276#4 706734276#3 171867126#8 171867126#7 171867126#6 171867126#5 171867126#3 171867126#2 171867126#1 171867126#0 171904516#0 -158486424#9 -158486424#8 -158486424#7 -158486424#6 -133755130#6"/>
    </person>
    <person id="ped17" type="ped_pedestrian" depart="16.83">
        <walk edges="-229635040#1 -229635040#0 -135530186#6 -133755130#0 -133755130#1 -133755130#2 -133755130#3 -133755130#4 -133755130#5 -133755130#6 -158486424#6 -158486424#7 -158486424#8 -158486424#9 171904516#0 171867126#0 171867126#1 171867126#2 171867126#3 171867126#5 171867126#6 171867126#7 171867126#8 -706734276#2 -288926324#5 -288926324#4 -288926324#3 -288926324#2 -288926324#1"/>
    </person>
    <person id="ped18" type="ped_pedestrian" depart="17.82">
        <walk edges="-158486424#0 158486424#1 158486424#2 133755132#0 -133755132#1 -133755132#2 133755132#6 133755132#5 -246985854#0 -246985854#1 -246985864#0 -135530186#1 -229635038#5 -229635038#4 -229635038#3 -229635038#2 -229635043#2"/>
    </person>
    <person id="ped19" type="ped_pedestrian" depart="18.81">
        <walk edges="-171865797#3 -171865797#2 -171865797#1 171865797#0 171867135#1 -246989087#0"/>
    </person>
    <person id="ped22" type="ped_pedestrian" depart="21.78">
        <walk edges="173655929#2 173655929#3 173655926#0 173655926#1 173655926#2 -173655926#3 -186250792#1 -186250480#5 -186250480#4 -186250480#3 -133637884 133637883#2 286437949 286438372 135530186#21 135530186#20 135530186#19 135530186#18 -135530186#17 171870076#0 171870076#1 171870075#0"/>
    </person>
    <person id="ped23" type="ped_pedestrian" depart="22.77">
        <walk edges="135530186#15 -171870088#1 -171870088#0 -171870075#0 246982749#2 246982749#1 246982749#0 158486424#15 158486424#14 158486424#13 -158486424#12 171902839#0 171902839#1 171902839#2 171902839#3 171902839#4 171867126#8 706734276#2 288926324#5 288926324#4 288926324#3 288926324#2 288926324#1 288926324#0 -236471196 -171865797#8 -171865797#7 -171865797#6 -171865797#5 -171865797#4 -171865797#3 -171865797#2 -171865797#1 -171865797#0 -171867135#1 -171867135#0 -715685826#0 800610509#2 800610509#1 306475945 186258462#1"/>
    </person>
    <person id="ped24" type="ped_pedestrian" depart="23.76">
        <walk edges="709873267 -709873268 171870088#1 -135530186#15 -803243445#2 -803243445#1 803243444#0 -803243444#1 286440122#1 286440122#0 -286440385#0 286440385#1"/>
    </person>
    <person id="ped25" type="ped_pedestrian" depart="24.75">
        <walk edges="-229635041#0 -229635040#2 -229635040#1 -229635040#0 -135530186#6 -133755130#0 -133755130#1 -133755130#2 -133755130#3 -133755130#4 -133755130#5 -133755130#6 -158486424#6 -158486424#7 -158486424#8 -158486424#9 171904516#0 171867126#0 171867126#1 171867126#2 171867126#3 -171867126#5 -171867126#6 -171867126#7 -171867126#8 706734276#2 288926324#5 288926324#4 288926324#3 288926324#2 288926324#1 288926324#0 -236471196 -171865797#8 -171865797#7 -171865797#6 -171865797#5 -171865797#4 -171865797#3 -171865797#2 -171865797#1 -171865797#0 -171867135#1 -171867135#0 -715685826#0 800610509#2 800610509#1 -306475945 -186258462#1 -186258462#0 -133755126#13"/>
    </person>
    <person id="ped26" type="ped_pedestrian" depart="25.74">
        <walk edges="-543878957 133637883#5 133637883#4 -286437949 -286438371#0 -803758021 -171870084#0 -171870084#1 -171870084#2 -171870084#3 246982749#2 246982749#1 246982749#0 158486424#15 -246982755#0 246982756 -246982756"/>
    </person>
    <person id="ped27" type="ped_pedestrian" depart="26.73">
        <walk edges="135530186#21 286438372 286437949 133637883#2 -133637884 -186250480#3 -186250480#4 -186250480#5 186250792#1 -173655926#4 -173655926#5 -173655926#6 -173655926#7 -245441809#0"/>
    </person>
    <person id="ped28" type="ped_pedestrian" depart="27.72">
        <walk edges="171865797#0 -171865797#1 -171865797#2 -171865797#3 -171865797#4 -171865797#5 -171865797#6 -171865797#7 171865797#8 -800384388 800384387#0 -800669875 800669875"/>
    </person>
    <person id="ped29" type="ped_pedestrian" depart="28.71">
        <walk edges="-803243445#0 803243445#1 803243445#2 135530186#15 -171870088#1 -171870088#0 -171870075#0 246982749#2 246982749#1 246982749#0 158486424#15 158486424#14 158486424#13 -158486424#12 171902839#0 171902839#1 171902839#2 171902839#3 171902839#4 171867126#8 706734276#3 706734276#4 706734275#0 706734275#1 -186263433#2 290625965 -186263438#1 -186263438#0"/>
    </person>
    <person id="ped30" type="ped_pedestrian" depart="29.70">
        <walk edges="817124519 229635059#0 158486424#3 -133755132#0 -133755132#1 133755121"/>
    </person>
    <person id="ped31" type="ped_pedestrian" depart="30.69">
        <walk edges="-171867127#0 171867131#1 171867131#2 171865797#7 171865797#8 -236471196 288926324#0 288926324#1 288926324#2 288926324#3 288926324#4 288926324#5 706734276#2 171867126#8 171902839#4 171902839#3"/>
    </person>
    <person id="ped33" type="ped_pedestrian" depart="32.67">
        <walk edges="-133882615#3 -133882615#4 133882611#1 133882611#0 -668986453#2 -668986453#1 -668986453#0 -133882604#5 -800610505#4 -800610505#3 -800610505#2 -800610505#1"/>
    </person>
    <person id="ped34" type="ped_pedestrian" depart="33.66">
        <walk edges="812556707#1 186250794#2 173655938#10 173655938#11 173655926#1 173655926#2 -173655926#3 -186250792#1 -186250480#5 -186250480#4 -186250480#3 -133637884 133637883#2 286437949 286438372 135530186#21 135530186#20 135530186#19 135530186#18 -135530186#17 171870076#0 171870076#1 171870088#0 709873268 709873267 706110058#2 709873265 133755130#0 133755130#1"/>
    </person>
    <person id="ped35" type="ped_pedestrian" depart="34.65">
        <walk edges="806271848 -668986453#1 -668986453#2 -133882611#0 -133882611#1 -133882611#2 229635299#8 -229635299#7 -229635299#6 -229635299#5 -229635299#4 -229635299#3 229635299#2 -805231223#0 -805231223#1 -133755125#0 -133755125#1 -133755125#2 -133755125#3 -133755125#4 -133755125#5 -133755125#6 -133755125#7 -133755125#8 -133755125#9 -158486424#2 -158486424#3 -158486424#4 -158486424#5 -158486424#6 -158486424#7 -158486424#8 -158486424#9 171904516#0 171867126#0 171867126#1 171867126#2 171867126#3 -171867126#5 -171867126#6 -171867126#7 -171867126#8 706734276#2 288926324#5 288926324#4 288926324#3 288926324#2 288926324#1 288926324#0 -236471196 -800384388 800384387#0"/>
    </person>
    <person id="ped36" type="ped_pedestrian" depart="35.64">
        <walk edges="-133637487#5 -803758015#1 804207575 -186250480#3 -133637884 133637883#2 286437949 286438372 135530186#21 135530186#20 135530186#19 135530186#18 135530186#17 135530186#16 -135530186#15 -135530186#14 -135530186#12 -135530186#11 -135530186#10 135530186#9 -229635041#0 229635040#2 229635045#3 229635045#2 229635045#1"/>
    </person>
    <person id="ped37" type="ped_pedestrian" depart="36.63">
        <walk edges="186258455#2 706318006 -706318005 -706318004#0 133755126#13 186258462#0 186258462#1 306475945 800610509#1 800610509#2 -715685826#0 -171867135#0 -171867135#1 -171865797#0 -171865797#1 -171865797#2 -171865797#3 -171865797#4 -171865797#5 -171865797#6 -171865797#7 -171865797#8 -236471196 288926324#0 288926324#1 288926324#2 288926324#3 288926324#4 288926324#5 706734276#2 -171867126#8 -171867126#7 -171867126#6 -171867126#5 171867126#3 171867126#2 171867126#1 171867126#0 171904516#0 -158486424#9 -158486424#8 -158486424#7 -158486424#6 158486424#5 133755129#1 133755134#0"/>
    </person>
    <person id="ped38" type="ped_pedestrian" depart="37.62">
        <walk edges="-246982755#1 -246982755#0 158486424#14 158486424#13 158486424#12 158486424#11 158486424#10 -171904516#0 -171904516#1 -171904516#2 171904523"/>
    </person>
    <person id="ped39" type="ped_pedestrian" depart="38.61">
        <walk edges="-171867127#3 -171867127#2 -171867127#1 -171867127#0 171867131#1 171867131#2 171865797#7 171865797#8 -236471196 288926324#0 288926324#1 288926324#2 288926324#3 288926324#4 288926324#5 706734276#2 -171867126#8 -171867126#7 -171867126#6 -171867126#5 171867126#3 171867126#2 171867126#1 171867126#0 171904516#0 -158486424#9 -158486424#8 -158486424#7 -158486424#6 -158486424#5 -158486424#4 -158486424#3 -158486424#2 -133755125#9 -133755125#8 -133755125#7 -133755125#6 -133755125#5 -133755125#4 -133755125#3 -133755125#2 -805215218"/>
    </person>
    <person id="ped40" type="ped_pedestrian" depart="39.60">
        <walk edges="-806271842#0 -806271843#0 668986454#1 668986454#0 -668986453#0 -668986453#1 -668986453#2 -133882611#0 -133882611#1 -133882611#2 229635299#8 -229635299#7 -229635299#6 -229635299#5 229635299#4 805231225"/>
    </person>
    <person id="ped41" type="ped_pedestrian" depart="40.59">
        <walk edges="133637883#4 133637883#2 -133637884 -186250480#3 -186250480#4"/>
    </person>
    <person id="ped43" type="ped_pedestrian" depart="42.57">
        <walk edges="171867138#1 800610509#3 -715685826#0 -171867135#0 -171867135#1 -171865797#0 -171865797#1 -171865797#2 -171865797#3 -171865797#4 -171865797#5 -171865797#6 -171865797#7 -171865797#8 -236471196 288926324#0 288926324#1 288926324#2 288926324#3 288926324#4 288926324#5 706734276#2 -171867126#8 -171867126#7 -171867126#6 -171867126#5 -171867126#3 -171867126#2 -171904517"/>
    </person>
    <person id="ped44" type="ped_pedestrian" depart="43.56">
        <walk edges="288926324#0 288926324#1 288926324#2 288926324#3 288926324#4 288926324#5 706734276#2 -171867126#8 -171867126#7 -171867126#6 -171867126#5 171867126#3 171867126#2 171867126#1 171867126#0 171904516#0 -158486424#9 -158486424#8 -158486424#7 158486424#6 133755130#6 133755130#5 133755130#4 133755130#3"/>
    </person>
    <person id="ped45" type="ped_pedestrian" depart="44.55">
        <walk edges="-122612356#0 -122612374#0 706734275#3 706734275#2 706734275#1 706734275#0 706734276#1 -288926324#5 -288926324#4 -288926324#3 -288926324#2 -288926324#1 -288926324#0 -236471196 -171865797#8 -171865797#7 -171865797#6 -171865797#5 -171865797#4 -171865797#3 -171865797#2 -171865797#1 -171865797#0 -171867135#1 -171867135#0 -715685826#0 800610509#2 800610509#1 306475945 186258462#1 186258462#0 133755126#13 133755126#12 133755126#10 133755126#9 133755126#8 133755126#7 133755126#6 133755126#5 -133755126#4 186254734 133755118#1 -706173403"/>
    </person>
    <person id="ped46" type="ped_pedestrian" depart="45.54">
        <walk edges="-133755118#0 133755118#1 186254734 -133755126#4 133755126#5 133755126#6 133755126#7 133755126#8 133755126#9 133755126#10 133755126#12 133755126#13 186258462#0 186258462#1 306475945 800610509#1 800610509#2 -715685826#0 -171867135#0 -171867135#1 -171865797#0 -171865797#1 -171865797#2 -171865797#3 -171865797#4 -171865797#5 -171865797#6 -171865797#7 -171865797#8 -236471196 288926324#0 288926324#1 288926324#2 288926324#3 288926324#4 288926324#5 706734276#2 171867126#8 171902839#4 171902839#3 171902839#2 171902839#1 171902839#0 -158486424#12 158486424#13 158486424#14 158486424#15 246982749#0 246982749#1 246982749#2 -171870084#3 -171870084#2 -171870084#1 -171870084#0 -803758021 -286438371#0 286437949 133637883#2 -133637884 -186250480#3 -186250480#4 -186250480#5 186250792#1 -173655926#4 -173655926#5 173655926#6 173655926#7 245441027#0 245441027#1 245441027#2 245441027#4 -245441027#5 803758029#1"/>
    </person>
    <person id="ped48" type="ped_pedestrian" depart="47.52">
        <walk edges="-158486424#18 171867130#0 -171867130#1 800610495#1 800610495#0 171867136#3 -171867136#2 -171867136#1 -171867136#0 706734276#4 -706734275#0 -817230302"/>
    </person>
    <person id="ped49" type="ped_pedestrian" depart="48.51">
        <walk edges="-135530186#11 -135530186#10 -135530186#9 -135530186#8 133755130#0 133755130#1 133755130#2 133755130#3 133755130#4 246985860#0 246985860#1"/>
    </person>
    <person id="ped50" type="ped_pedestrian" depart="49.50">
        <walk edges="246989083#3 -246989092#0 800610512 -246989087#0 171867135#1 171865797#0 -171865797#1 -171865797#2 -171865797#3 -171865797#4 -171865797#5 -171865797#6 -171865797#7 -171865797#8 -236471196 288926324#0 288926324#1 288926324#2 288926324#3 288926324#4 288926324#5 706734276#2 706734276#3 171867136#0 171867136#1 171867136#2 171867136#3 800610495#0 800610495#1 171867130#2 -171870082"/>
    </person>
    <person id="ped51" type="ped_pedestrian" depart="50.49">
        <walk edges="-806371414 133882615#2 133882615#3"/>
    </person>
    <person id="ped52" type="ped_pedestrian" depart="51.48">
        <walk edges="-186259469 -133755118#4 133755118#3 706318011 186254733#0 -133755126#6 -133755126#7 133755126#8 133755126#9 133755126#10 133755126#12 133755126#13 186258462#0 186258462#1 306475945 800610509#1 800610509#2 -715685826#0 -171867135#0 -171867135#1 -171865797#0 -171865797#1 -171865797#2 -171865797#3 -171865797#4 -171865797#5 -171865797#6 -171865797#7 -171865797#8 -236471196 -288926324#0 -288926324#1 -288926324#2 -288926324#3 -288926324#4 -288926324#5 706734276#1 -706734275#0 -706734275#1 186263433#2 290625965 186263438#1 -364433566"/>
    </person>
    <person id="ped53" type="ped_pedestrian" depart="52.47">
        <walk edges="-805231223#0 -805231223#1 -133755125#0 -133755125#1 -133755125#2 -133755125#3 -133755125#4 -133755125#5 -133755125#6 -133755125#7 -133755125#8 -133755125#9 -158486424#2 -158486424#3 -158486424#4 -158486424#5 -158486424#6 -158486424#7 -158486424#8 -158486424#9 171904516#0 171867126#0 171867126#1 171867126#2 171867126#3 -171867126#5 -171867126#6 -171867126#7 -171867126#8 706734276#2 288926324#5 288926324#4 288926324#3 288926324#2 288926324#1 288926324#0 -236471196 -171865797#8 -171865797#7 -171865797#6 -171865797#5 -171865797#4 -171865797#3 -171865797#2 -171865797#1 -171865797#0 -171867135#1 -171867135#0 -715685826#0 800610509#2 800610509#1 306475945 186258462#1 186258462#0 133755126#13 133755126#12"/>
    </person>
    <person id="ped54" type="ped_pedestrian" depart="53.46">
        <walk edges="-171867136#2 -800715314 171902839#1 171902839#0 158486424#11 158486424#10 158486424#9 -158486424#8 -158486424#7 -158486424#6 -133755130#6 -133755130#5 -133755130#4 -133755130#3 -133755130#2 -133755130#1 -133755130#0 -135530186#6 135530186#4 135530186#2 135530186#1 -229635038#5"/>
    </person>
    <person id="ped55" type="ped_pedestrian" depart="54.45">
        <walk edges="-706734276#2 -288926324#5 -288926324#4 -288926324#3 -288926324#2 -288926324#1 -288926324#0 -236471196 -171865797#8 -171865797#7 -171865797#6 171865797#5"/>
    </person>
    <person id="ped56" type="ped_pedestrian" depart="55.44">
        <walk edges="-229635041#2 229635038#4 -229635046#2 229635046#1 229635046#0 229635039#0 135530186#4 -135530186#6 -133755130#0 -133755130#1 -133755130#2 -133755130#3 -133755130#4 -133755130#5 -133755130#6 -158486424#6 -158486424#7 -158486424#8 -158486424#9 171904516#0 171867126#0 171867126#1 171867126#2 171867126#3 171867126#5 171867126#6 171867126#7 171867126#8 706734276#3 706734276#4 706734275#0 706734275#1 -186263433#2 290625965 -186263438#1"/>
    </person>
    <person id="ped57" type="ped_pedestrian" depart="56.43">
        <walk edges="-135530186#15 171870088#1 171870088#0 -171870075#0 246982749#2 246982749#1 246982749#0 158486424#15 158486424#14 158486424#13 158486424#12 158486424#11 -171902835#4 -171902835#3 171902837#0 171902843#0 171902843#1"/>
    </person>
    <person id="ped58" type="ped_pedestrian" depart="57.42">
        <walk edges="800384386 800384387#1 -800384387#0 800384388 236471196 288926324#0 288926324#1 288926324#2 288926324#3 288926324#4 288926324#5 706734276#2 171867126#8 171902839#4 171902839#3 171902839#2 171902839#1 171902839#0 -158486424#12 158486424#13 158486424#14 158486424#15 246982749#0 246982749#1 246982749#2 -171870075#0 171870088#0 171870088#1 -135530186#15"/>
    </person>
    <person id="ped59" type="ped_pedestrian" depart="58.41">
        <walk edges="-229635051 229635045#1 229635045#2 229635045#3 229635040#2 -229635041#0 135530186#9 -135530186#10 -135530186#11 -135530186#12 -135530186#14 -135530186#15 135530186#16 135530186#17 135530186#18 135530186#19 135530186#20 135530186#21 286438372 286437949 133637883#2 -133637884 -186250480#3 -186250480#4 -186250480#5 186250792#1 -173655926#4 -173655926#5 -173655926#6 186250796"/>
    </person>
    <person id="ped61" type="ped_pedestrian" depart="60.39">
        <walk edges="804207575 -186250480#3 -133637884 133637883#2 286437949 286438371#0 803758021 803758022 171870084#1 171870084#2 -171870086#1 171870085#0 171870085#1 158486424#17"/>
    </person>
    <person id="ped62" type="ped_pedestrian" depart="61.38">
        <walk edges="-806366425 806271837#4 806271837#5 806271837#6 806271837#7 -668986454#4 -668986454#3 -668986454#2 -668986454#1 -668986454#0 -668986453#0 -668986453#1 -668986453#2 -133882611#0 -133882611#1 -133882611#2 229635299#8 -229635299#7 -229635299#6 -229635299#5 -229635299#4 -229635299#3 229635299#2 -805231223#0 -805231223#1 -133755125#0 -133755125#1 -133755125#2 -133755125#3 -133755125#4 -133755125#5 -133755125#6 -133755125#7 -133755125#8 -133755125#9 -158486424#2 -158486424#3 -158486424#4 -158486424#5 -158486424#6 -158486424#7 -158486424#8 -158486424#9 171904516#0 171867126#0 171867126#1 171867126#2 171867126#3 -171867126#5 -171867126#6 -171867126#7 -171867126#8 706734276#2 288926324#5 288926324#4 288926324#3 290625964"/>
    </person>
    <person id="ped63" type="ped_pedestrian" depart="62.37">
        <walk edges="-171865792#7 -171865792#8 -171865792#10 -171865792#11 -171865792#12 171867127#2 171867127#1 171867127#0 -171867131#1 -171867131#2 -171865797#7 -171865797#8 -236471196 288926324#0 288926324#1 288926324#2 288926324#3 288926324#4 288926324#5 706734276#2 -171867126#8 -171867126#7 -171867126#6 -171867126#5 171867126#3 171867126#2 171867126#1 171867126#0 171904516#0 -158486424#9 -158486424#8 -158486424#7 -158486424#6 -158486424#5 -158486424#4 -158486424#3 -158486424#2 -133755125#9 -133755125#8 -805215212"/>
    </person>
    <person id="ped64" type="ped_pedestrian" depart="63.36">
        <walk edges="806355598#3 -229635299#7 -229635299#6 -229635299#5 -229635299#4 -229635299#3 229635299#2 -805231223#0 -805231223#1 -133755125#0 -133755125#1 -133755125#2 -133755125#3 -133755125#4 -133755125#5 -133755125#6 -133755125#7 -133755125#8 -133755125#9 -158486424#2 -158486424#3 -158486424#4 -158486424#5 -158486424#6 -158486424#7 -158486424#8 -158486424#9 171904516#0 171867126#0 171867126#1 171867126#2 171867126#3 -171867126#5 -171867126#6 -171867126#7 -171867126#8 706734276#2 288926324#5 288926324#4 288926324#3 288926324#2 288926324#1 288926324#0 -236471196 -171865797#8 -171865797#7 -171865797#6 -171865797#5 -171865797#4 -171865797#3 -171865797#2 -171865797#1 -171865797#0"/>
    </person>
    <person id="ped65" type="ped_pedestrian" depart="64.35">
        <walk edges="-803243449 229635043#0 135530186#10 135530186#9 -229635041#0 229635040#2 229635045#3 229635039#2 229635039#1 229635039#0 135530186#2 246985864#0 -246985854#1 -246985854#0 133755132#5 133755132#6 -133755132#2 -133755132#1 -133755132#0 -158486424#2 -133755125#9 133755125#8 133755125#7 133755125#6 133755125#5 133755125#4 133755125#3 133755125#2 133755125#1 709859523#1 -709859523#0"/>
    </person>
    <person id="ped66" type="ped_pedestrian" depart="65.34">
        <walk edges="800384387#2 -800384387#1 -800384387#0 800384388 236471196 288926324#0 288926324#1 288926324#2 288926324#3 288926324#4 288926324#5 706734276#2 -171867126#8 -171867126#7 -171867126#6 -171867126#5 171867126#3 171867126#2 171867126#1 171867126#0 171904516#0 -158486424#9 -158486424#8 -158486424#7 -158486424#6 -158486424#5 -158486424#4 -158486424#3 -158486424#2 -133755125#9 -133755125#8 -133755125#7 -133755125#6 -133755125#5 -133755125#4 -133755125#3 -133755125#2 -133755125#1 -133755125#0 -805231223#1 -805231223#0 229635299#2 -229635299#3 -229635299#4 -229635299#5"/>
    </person>
    <person id="ped67" type="ped_pedestrian" depart="66.33">
        <walk edges="-805873583#1 805873583#1 171904519#3 171904519#2 171904519#1 171904518 -171867126#3 -171867126#5 -171867126#6 -171867126#7 -171867126#8 706734276#2 288926324#5 288926324#4 288926324#3 288926324#2 288926324#1 288926324#0 236471196 800384388 -800384387#0 800384387#1"/>
    </person>
    <person id="ped71" type="ped_pedestrian" depart="70.29">
        <walk edges="-246982751 -246982749#1 -246982749#0 158486424#15 158486424#14 158486424#13 158486424#12 158486424#11 -171902842#0 -171902842#1 -171867126#5 171902835#1 -800669877 -186262687#2 -186262687#4 -186262687#5 -186262687#6 -186262687#7 -186262687#8 613492733 -290646813 290520227"/>
    </person>
    <person id="ped72" type="ped_pedestrian" depart="71.28">
        <walk edges="135530186#12 135530186#11 229635043#0"/>
    </person>
    <person id="ped74" type="ped_pedestrian" depart="73.26">