<?xml version="1.0" encoding="UTF-8"?>

<!-- generated on Wed Nov 25 19:48:29 2020 by Eclipse SUMO duarouter Version 1.7.0
<configuration xmlns:xsi="http://www.w3.org/2001/XMLSchema-instance" xsi:noNamespaceSchemaLocation="http://sumo.dlr.de/xsd/duarouterConfiguration.xsd">

    <input>
        <net-file value="/home/shashwath/Sumo/2020-11-25-19-48-17/osm.net.xml"/>
        <route-files value="/home/shashwath/Sumo/2020-11-25-19-48-17/osm.bicycle.trips.xml"/>
    </input>

    <output>
        <output-file value="/home/shashwath/Sumo/2020-11-25-19-48-17/osm.bicycle.trips.xml.tmp"/>
        <write-trips value="true"/>
    </output>

    <time>
        <begin value="0"/>
        <end value="3600"/>
    </time>

    <report>
        <no-warnings value="true"/>
        <ignore-errors value="true"/>
        <no-step-log value="true"/>
    </report>

</configuration>
-->

<routes xmlns:xsi="http://www.w3.org/2001/XMLSchema-instance" xsi:noNamespaceSchemaLocation="http://sumo.dlr.de/xsd/routes_file.xsd">
    <vType id="bike_bicycle" vClass="bicycle"/>
    <trip id="bike0" type="bike_bicycle" depart="0.00" departLane="best" from="171904516#1" to="-133755125#1"/>
    <trip id="bike1" type="bike_bicycle" depart="1.67" departLane="best" from="-246985859" to="-186263438#1"/>
    <trip id="bike3" type="bike_bicycle" depart="5.00" departLane="best" from="800669859" to="-158486424#18"/>
    <trip id="bike4" type="bike_bicycle" depart="6.66" departLane="best" from="-803758026#0" to="-133755125#9"/>
    <trip id="bike6" type="bike_bicycle" depart="10.00" departLane="best" from="-133755125#4" to="-186258455#2"/>
    <trip id="bike7" type="bike_bicycle" depart="11.66" departLane="best" from="173655926#2" to="133755134#1"/>
    <trip id="bike8" type="bike_bicycle" depart="13.33" departLane="best" from="-186263433#0" to="171865792#2"/>
    <trip id="bike9" type="bike_bicycle" depart="14.99" departLane="best" from="364433566" to="-133637485"/>
    <trip id="bike10" type="bike_bicycle" depart="16.66" departLane="best" from="306475947#0" to="186262687#1"/>
    <trip id="bike11" type="bike_bicycle" depart="18.33" departLane="best" from="-706734276#0" to="-171904518"/>
    <trip id="bike12" type="bike_bicycle" depart="19.99" departLane="best" from="806271835#0" to="-706734273"/>
    <trip id="bike13" type="bike_bicycle" depart="21.66" departLane="best" from="-171865789" to="-171865792#2"/>
    <trip id="bike14" type="bike_bicycle" depart="23.33" departLane="best" from="715685821" to="171867126#8"/>
    <trip id="bike16" type="bike_bicycle" depart="26.66" departLane="best" from="133755130#3" to="806281522#0"/>
    <trip id="bike17" type="bike_bicycle" depart="28.32" departLane="best" from="-800610494" to="133882611#2"/>
    <trip id="bike18" type="bike_bicycle" depart="29.99" departLane="best" from="706173405#0" to="171870076#0"/>
    <trip id="bike19" type="bike_bicycle" depart="31.66" departLane="best" from="800384388" to="158486424#15"/>
    <trip id="bike20" type="bike_bicycle" depart="33.32" departLane="best" from="186262688#1" to="-133755130#4"/>
    <trip id="bike21" type="bike_bicycle" depart="34.99" departLane="best" from="-229635039#0" to="-286440385#1"/>
    <trip id="bike22" type="bike_bicycle" depart="36.65" departLane="best" from="-135530186#9" to="-229635041#1"/>
    <trip id="bike23" type="bike_bicycle" depart="38.32" departLane="best" from="-171865797#11" to="-246985864#1"/>
    <trip id="bike24" type="bike_bicycle" depart="39.99" departLane="best" from="171902841#0" to="-800610480"/>
    <trip id="bike25" type="bike_bicycle" depart="41.65" departLane="best" from="-800610483#5" to="-186262687#2"/>
    <trip id="bike26" type="bike_bicycle" depart="43.32" departLane="best" from="-246982749#1" to="804207591#5"/>
    <trip id="bike27" type="bike_bicycle" depart="44.98" departLane="best" from="171904521" to="171867130#3"/>
    <trip id="bike28" type="bike_bicycle" depart="46.65" departLane="best" from="-173655938#10" to="229635045#1"/>
    <trip id="bike29" type="bike_bicycle" depart="48.32" departLane="best" from="-173655926#7" to="-800610494"/>
    <trip id="bike30" type="bike_bicycle" depart="49.98" departLane="best" from="809425537" to="171902843#1"/>
    <trip id="bike31" type="bike_bicycle" depart="51.65" departLane="best" from="133882909#0" to="186254736#4"/>
    <trip id="bike32" type="bike_bicycle" depart="53.31" departLane="best" from="709859523#1" to="246989087#0"/>
    <trip id="bike33" type="bike_bicycle" depart="54.98" departLane="best" from="-229635039#2" to="-133755126#12"/>
    <trip id="bike34" type="bike_bicycle" depart="56.65" departLane="best" from="-364433566" to="-246982749#1"/>
    <trip id="bike35" type="bike_bicycle" depart="58.31" departLane="best" from="-186262687#6" to="804258386"/>
    <trip id="bike37" type="bike_bicycle" depart="61.65" departLane="best" from="173655929#2" to="-800669875"/>
    <trip id="bike38" type="bike_bicycle" depart="63.31" departLane="best" from="803758011#0" to="-806271841#0"/>
    <trip id="bike39" type="bike_bicycle" depart="64.98" departLane="best" from="-245441027#7" to="-229635059#0"/>
    <trip id="bike41" type="bike_bicycle" depart="68.31" departLane="best" from="171865789" to="800669878"/>
    <trip id="bike42" type="bike_bicycle" depart="69.98" departLane="best" from="-800669885" to="-186263426#0"/>
    <trip id="bike43" type="bike_bicycle" depart="71.64" departLane="best" from="817124519" to="133637885"/>
    <trip id="bike44" type="bike_bicycle" depart="73.31" departLane="best" from="-158486424#9" to="-133755132#0"/>
    <trip id="bike45" type="bike_bicycle" depart="74.97" departLane="best" from="-171867126#6" to="171902829#0"/>
    <trip id="bike47" type="bike_bicycle" depart="78.31" departLane="best" from="-133882615#2" to="-800610497"/>
    <trip id="bike48" type="bike_bicycle" depart="79.97" departLane="best" from="812556707#1" to="133755126#6"/>
    <trip id="bike49" type="bike_bicycle" depart="81.64" departLane="best" from="806271848" to="800384387#5"/>
    <trip id="bike50" type="bike_bicycle" depart="83.30" departLane="best" from="-133637487#5" to="229635039#0"/>
    <trip id="bike51" type="bike_bicycle" depart="84.97" departLane="best" from="186254736#1" to="133755130#2"/>
    <trip id="bike52" type="bike_bicycle" depart="86.64" departLane="best" from="-246982749#0" to="171904516#1"/>
    <trip id="bike54" type="bike_bicycle" depart="89.97" departLane="best" from="-806271837#6" to="805231569"/>
    <trip id="bike56" type="bike_bicycle" depart="93.30" departLane="best" from="133637487#0" to="-186250480#0"/>
    <trip id="bike58" type="bike_bicycle" depart="96.63" departLane="best" from="-290646812#1" to="171902842#1"/>
    <trip id="bike59" type="bike_bicycle" depart="98.30" departLane="best" from="171867131#1" to="-171904516#4"/>
    <trip id="bike60" type="bike_bicycle" depart="99.97" departLane="best" from="246982756" to="133755130#6"/>
    <trip id="bike61" type="bike_bicycle" depart="101.63" departLane="best" from="286438371#0" to="133755126#8"/>
    <trip id="bike62" type="bike_bicycle" depart="103.30" departLane="best" from="-122612356#0" to="-668986453#2"/>
    <trip id="bike64" type="bike_bicycle" depart="106.63" departLane="best" from="800610492#1" to="706318005"/>
    <trip id="bike65" type="bike_bicycle" depart="108.30" departLane="best" from="-306475945" to="-133882609#3"/>
    <trip id="bike66" type="bike_bicycle" depart="109.96" departLane="best" from="800610492#0" to="805215217"/>
    <trip id="bike67" type="bike_bicycle" depart="111.63" departLane="best" from="-158486424#17" to="-811935463"/>
    <trip id="bike68" type="bike_bicycle" depart="113.29" departLane="best" from="-135530186#10" to="246982749#1"/>
    <trip id="bike69" type="bike_bicycle" depart="114.96" departLane="best" from="246985856" to="-171870076#1"/>
    <trip id="bike70" type="bike_bicycle" depart="116.63" departLane="best" from="-806355598#2" to="133882609#2"/>
    <trip id="bike71" type="bike_bicycle" depart="118.29" departLane="best" from="-245441027#7" to="800610484"/>
    <trip id="bike72" type="bike_bicycle" depart="119.96" departLane="best" from="-803758027" to="-186262687#7"/>
    <trip id="bike73" type="bike_bicycle" depart="121.62" departLane="best" from="133755132#1" to="229635045#2"/>
    <trip id="bike74" type="bike_bicycle" depart="123.29" departLane="best" from="-186258462#0" to="-306475947#0"/>
    <trip id="bike76" type="bike_bicycle" depart="126.62" departLane="best" from="-805215215" to="133755125#1"/>
    <trip id="bike77" type="bike_bicycle" depart="128.29" departLane="best" from="-171867136#0" to="-229635038#0"/>
    <trip id="bike78" type="bike_bicycle" depart="129.95" departLane="best" from="-706734275#0" to="171865792#11"/>
    <trip id="bike79" type="bike_bicycle" depart="131.62" departLane="best" from="-229635040#1" to="-186263426#1"/>
    <trip id="bike80" type="bike_bicycle" depart="133.29" departLane="best" from="-135530186#14" to="171902835#2"/>
    <trip id="bike81" type="bike_bicycle" depart="134.95" departLane="best" from="-229635039#2" to="803243444#1"/>
    <trip id="bike82" type="bike_bicycle" depart="136.62" departLane="best" from="800384387#1" to="-135530186#12"/>
    <trip id="bike84" type="bike_bicycle" depart="139.95" departLane="best" from="-186262688#2" to="-171870084#3"/>
    <trip id="bike88" type="bike_bicycle" depart="146.62" departLane="best" from="-171865792#3" to="-803758037"/>
    <trip id="bike89" type="bike_bicycle" depart="148.28" departLane="best" from="-803758028" to="-806281522#1"/>
    <trip id="bike91" type="bike_bicycle" depart="151.61" departLane="best" from="806355599" to="-171865792#7"/>
    <trip id="bike92" type="bike_bicycle" depart="153.28" departLane="best" from="-803243444#0" to="-706734275#1"/>
    <trip id="bike93" type="bike_bicycle" depart="154.95" departLane="best" from="800384388" to="-229635060"/>
    <trip id="bike94" type="bike_bicycle" depart="156.61" departLane="best" from="-186254736#0" to="-805873583#1"/>
    <trip id="bike95" type="bike_bicycle" depart="158.28" departLane="best" from="-803758026#0" to="-246985864#2"/>
    <trip id="bike96" type="bike_bicycle" depart="159.94" departLane="best" from="-229635299#2" to="803758023"/>
    <trip id="bike97" type="bike_bicycle" depart="161.61" departLane="best" from="-805231223#0" to="800384388"/>
    <trip id="bike98" type="bike_bicycle" depart="163.28" departLane="best" from="133882611#1" to="-133755132#6"/>
    <trip id="bike102" type="bike_bicycle" depart="169.94" departLane="best" from="-811935466" to="-186262688#0"/>
    <trip id="bike103" type="bike_bicycle" depart="171.61" departLane="best" from="-800669888" to="-133882611#0"/>
    <trip id="bike104" type="bike_bicycle" depart="173.27" departLane="best" from="-800610495#0" to="806366425"/>
    <trip id="bike105" type="bike_bicycle" depart="174.94" departLane="best" from="-245441809#0" to="286440123#3"/>
    <trip id="bike107" type="bike_bicycle" depart="178.27" departLane="best" from="806271835#0" to="812556705"/>
    <trip id="bike108" type="bike_bicycle" depart="179.94" departLane="best" from="133882615#3" to="229635038#3"/>
    <trip id="bike109" type="bike_bicycle" depart="181.60" departLane="best" from="-171904517" to="-290520225#1"/>
    <trip id="bike110" type="bike_bicycle" depart="183.27" departLane="best" from="806271844" to="158486424#18"/>
    <trip id="bike111" type="bike_bicycle" depart="184.94" departLane="best" from="133755132#6" to="236471188#1"/>
    <trip id="bike112" type="bike_bicycle" depart="186.60" departLane="best" from="-133882609#2" to="158486424#9"/>
    <trip id="bike113" type="bike_bicycle" depart="188.27" departLane="best" from="133637487#4" to="800384377"/>
    <trip id="bike114" type="bike_bicycle" depart="189.93" departLane="best" from="-171904520" to="806271837#5"/>
    <trip id="bike117" type="bike_bicycle" depart="194.93" departLane="best" from="-229635043#2" to="-171867133"/>
    <trip id="bike118" type="bike_bicycle" depart="196.60" departLane="best" from="800610509#2" to="-229635058"/>
    <trip id="bike119" type="bike_bicycle" depart="198.26" departLane="best" from="171865797#4" to="171870076#1"/>
    <trip id="bike120" type="bike_bicycle" depart="199.93" departLane="best" from="-803758020" to="158486424#8"/>
    <trip id="bike121" type="bike_bicycle" depart="201.60" departLane="best" from="133755126#10" to="804207575"/>
    <trip id="bike123" type="bike_bicycle" depart="204.93" departLane="best" from="-229635046#0" to="-800669876"/>
    <trip id="bike124" type="bike_bicycle" depart="206.59" departLane="best" from="186250792#0" to="-290646814"/>
    <trip id="bike125" type="bike_bicycle" depart="208.26" departLane="best" from="-374529123#1" to="236471193#1"/>
    <trip id="bike126" type="bike_bicycle" depart="209.93" departLane="best" from="-135530186#16" to="-806271840#2"/>
    <trip id="bike128" type="bike_bicycle" depart="213.26" departLane="best" from="-135530186#17" to="-186262687#9"/>
    <trip id="bike129" type="bike_bicycle" depart="214.93" departLane="best" from="-245441809#0" to="803758037"/>
    <trip id="bike130" type="bike_bicycle" depart="216.59" departLane="best" from="800610495#0" to="800610493"/>
    <trip id="bike131" type="bike_bicycle" depart="218.26" departLane="best" from="-800610483#4" to="-171904520"/>
    <trip id="bike132" type="bike_bicycle" depart="219.92" departLane="best" from="706318011" to="186262687#6"/>
    <trip id="bike133" type="bike_bicycle" depart="221.59" departLane="best" from="171867136#0" to="806371406"/>
    <trip id="bike134" type="bike_bicycle" depart="223.26" departLane="best" from="173655929#0" to="-133637486#1"/>
    <trip id="bike135" type="bike_bicycle" depart="224.92" departLane="best" departSpeed="max" from="543879349#0" to="-290646813"/>
    <trip id="bike137" type="bike_bicycle" depart="228.25" departLane="best" from="-171870086#0" to="-171867130#1"/>
    <trip id="bike138" type="bike_bicycle" depart="229.92" departLane="best" from="-171867126#1" to="133882611#4"/>
    <trip id="bike139" type="bike_bicycle" depart="231.59" departLane="best" from="-246985854#0" to="171867127#1"/>
    <trip id="bike140" type="bike_bicycle" depart="233.25" departLane="best" from="229635038#4" to="-186259469"/>
    <trip id="bike142" type="bike_bicycle" depart="236.58" departLane="best" from="-812556707#0" to="803243444#0"/>
    <trip id="bike143" type="bike_bicycle" depart="238.25" departLane="best" from="714381033" to="-171865779"/>
    <trip id="bike144" type="bike_bicycle" depart="239.92" departLane="best" from="-803758028" to="-246985860#1"/>
    <trip id="bike145" type="bike_bicycle" depart="241.58" departLane="best" from="-122612374#4" to="246985864#0"/>
    <trip id="bike147" type="bike_bicycle" depart="244.91" departLane="best" from="229635299#3" to="133882611#1"/>
    <trip id="bike148" type="bike_bicycle" depart="246.58" departLane="best" from="-803758034" to="-133637487#2"/>
    <trip id="bike149" type="bike_bicycle" depart="248.25" departLane="best" from="-135530186#20" to="800610499"/>
    <trip id="bike150" type="bike_bicycle" depart="249.91" departLane="best" from="800715313" to="133882604#0"/>
    <trip id="bike151" type="bike_bicycle" depart="251.58" departLane="best" from="706318012" to="158486424#6"/>
    <trip id="bike152" type="bike_bicycle" depart="253.24" departLane="best" from="-171902842#1" to="-171870075#1"/>
    <trip id="bike153" type="bike_bicycle" depart="254.91" departLane="best" from="-306475946#0" to="800669880#0"/>
    <trip id="bike155" type="bike_bicycle" depart="258.24" departLane="best" from="800669879" to="-186262687#4"/>
    <trip id="bike156" type="bike_bicycle" depart="259.91" departLane="best" from="-229635299#2" to="-171865797#3"/>
    <trip id="bike158" type="bike_bicycle" depart="263.24" departLane="best" from="-803243447" to="171870081#1"/>
    <trip id="bike160" type="bike_bicycle" depart="266.57" departLane="best" from="800384392" to="806281535"/>
    <trip id="bike161" type="bike_bicycle" depart="268.24" departLane="best" from="374529123#0" to="800610496"/>
    <trip id="bike162" type="bike_bicycle" depart="269.91" departLane="best" from="-133755125#1" to="229635056#1"/>
    <trip id="bike164" type="bike_bicycle" depart="273.24" departLane="best" from="306475945" to="800384391#1"/>
    <trip id="bike166" type="bike_bicycle" depart="276.57" departLane="best" from="288926324#2" to="-171867126#2"/>
    <trip id="bike167" type="bike_bicycle" depart="278.24" departLane="best" from="800610483#6" to="800384387#0"/>
    <trip id="bike168" type="bike_bicycle" depart="279.90" departLane="best" from="-186263438#1" to="543878957"/>
    <trip id="bike171" type="bike_bicycle" depart="284.90" departLane="best" from="-133755124" to="-186254736#5"/>
    <trip id="bike172" type="bike_bicycle" depart="286.57" departLane="best" from="-706173404#0" to="800384392"/>
    <trip id="bike173" type="bike_bicycle" depart="288.23" departLane="best" from="806271842#0" to="-246985864#3"/>
    <trip id="bike174" type="bike_bicycle" depart="289.90" departLane="best" from="171904516#4" to="-800669882"/>
    <trip id="bike177" type="bike_bicycle" depart="294.90" departLane="best" from="806271847" to="-186250480#0"/>
    <trip id="bike181" type="bike_bicycle" depart="301.56" departLane="best" from="171867130#0" to="133637887#1"/>
    <trip id="bike182" type="bike_bicycle" depart="303.23" departLane="best" from="-800610505#0" to="158486424#13"/>
    <trip id="bike185" type="bike_bicycle" depart="308.23" departLane="best" from="133755132#0" to="229635038#4"/>
    <trip id="bike186" type="bike_bicycle" depart="309.89" departLane="best" from="229635299#5" to="186250480#1"/>
    <trip id="bike187" type="bike_bicycle" depart="311.56" departLane="best" from="-800610480" to="-135530186#11"/>
    <trip id="bike188" type="bike_bicycle" depart="313.22" departLane="best" from="173655938#2" to="-706173404#2"/>
    <trip id="bike189" type="bike_bicycle" depart="314.89" departLane="best" from="-306475950" to="715685826#0"/>
    <trip id="bike190" type="bike_bicycle" depart="316.56" departLane="best" from="229635039#2" to="-290646814"/>
    <trip id="bike191" type="bike_bicycle" depart="318.22" departLane="best" from="-306475946#2" to="-803243449"/>
    <trip id="bike192" type="bike_bicycle" depart="319.89" departLane="best" from="-803243444#0" to="-288926324#5"/>
    <trip id="bike193" type="bike_bicycle" depart="321.55" departLane="best" from="-171870076#0" to="-803758021"/>
    <trip id="bike195" type="bike_bicycle" depart="324.89" departLane="best" from="800669887" to="171867136#4"/>
    <trip id="bike197" type="bike_bicycle" depart="328.22" departLane="best" from="-122612356#0" to="-286440123#0"/>
    <trip id="bike198" type="bike_bicycle" depart="329.88" departLane="best" from="-803758036" to="158486424#2"/>
    <trip id="bike199" type="bike_bicycle" depart="331.55" departLane="best" from="173655929#1" to="-806271849"/>
    <trip id="bike200" type="bike_bicycle" depart="333.22" departLane="best" from="-805231221" to="-186262688#0"/>
    <trip id="bike203" type="bike_bicycle" depart="338.22" departLane="best" from="-158486424#15" to="133755118#5"/>
    <trip id="bike205" type="bike_bicycle" depart="341.55" departLane="best" from="546663980" to="236471193#0"/>
    <trip id="bike206" type="bike_bicycle" depart="343.21" departLane="best" from="186250793#0" to="-229635038#0"/>
    <trip id="bike207" type="bike_bicycle" depart="344.88" departLane="best" from="-186258456" to="-133755125#0"/>
    <trip id="bike208" type="bike_bicycle" depart="346.55" departLane="best" from="-229635057" to="-806355598#0"/>
    <trip id="bike209" type="bike_bicycle" depart="348.21" departLane="best" from="715685826#2" to="-135530186#16"/>
    <trip id="bike210" type="bike_bicycle" depart="349.88" departLane="best" from="-803758013" to="171902835#0"/>
    <trip id="bike212" type="bike_bicycle" depart="353.21" departLane="best" from="122612374#0" to="-229635056#1"/>
    <trip id="bike213" type="bike_bicycle" depart="354.88" departLane="best" from="173655929#3" to="-133637484#2"/>
    <trip id="bike214" type="bike_bicycle" depart="356.54" departLane="best" from="236471195#0" to="246985860#1"/>
    <trip id="bike216" type="bike_bicycle" depart="359.87" departLane="best" from="-173655938#5" to="806271835#1"/>
    <trip id="bike217" type="bike_bicycle" depart="361.54" departLane="best" from="133755125#4" to="-133755132#5"/>
    <trip id="bike218" type="bike_bicycle" depart="363.21" departLane="best" from="-229635299#1" to="715685826#1"/>
    <trip id="bike220" type="bike_bicycle" depart="366.54" departLane="best" from="173655938#9" to="806371407"/>
    <trip id="bike221" type="bike_bicycle" depart="368.20" departLane="best" from="171865797#6" to="805231222"/>
    <trip id="bike222" type="bike_bicycle" depart="369.87" departLane="best" from="800610510" to="171867136#0"/>
    <trip id="bike223" type="bike_bicycle" depart="371.54" departLane="best" from="229635039#1" to="133637487#5"/>
    <trip id="bike224" type="bike_bicycle" depart="373.20" departLane="best" from="706318004#0" to="133882604#4"/>
    <trip id="bike225" type="bike_bicycle" depart="374.87" departLane="best" from="800669876" to="229635299#4"/>
    <trip id="bike226" type="bike_bicycle" depart="376.54" departLane="best" from="-806355598#1" to="-236471193#0"/>
    <trip id="bike227" type="bike_bicycle" depart="378.20" departLane="best" from="-229635059#2" to="171902841#1"/>
    <trip id="bike228" type="bike_bicycle" depart="379.87" departLane="best" from="246985856" to="133755125#7"/>
    <trip id="bike229" type="bike_bicycle" depart="381.53" departLane="best" from="171902829#1" to="-246985857"/>
    <trip id="bike230" type="bike_bicycle" depart="383.20" departLane="best" from="-135530186#25" to="-286438372"/>
    <trip id="bike231" type="bike_bicycle" depart="384.87" departLane="best" from="-246985853" to="-543878957"/>
    <trip id="bike232" type="bike_bicycle" depart="386.53" departLane="best" from="133755132#2" to="-171902831#0"/>
    <trip id="bike233" type="bike_bicycle" depart="388.20" departLane="best" from="-229635041#0" to="186258462#1"/>
    <trip id="bike235" type="bike_bicycle" depart="391.53" departLane="best" from="-803243449" to="133755132#4"/>
    <trip id="bike236" type="bike_bicycle" depart="393.20" departLane="best" from="-803758015#0" to="-186262687#10"/>
    <trip id="bike237" type="bike_bicycle" depart="394.86" departLane="best" from="-803758023" to="803243444#0"/>
    <trip id="bike238" type="bike_bicycle" depart="396.53" departLane="best" from="171865787" to="186259469"/>
    <trip id="bike239" type="bike_bicycle" depart="398.19" departLane="best" from="800384383" to="246985853"/>
    <trip id="bike240" type="bike_bicycle" depart="399.86" departLane="best" from="-800610496" to="-133637484#3"/>
    <trip id="bike241" type="bike_bicycle" depart="401.53" departLane="best" from="-800307537" to="236471195#1"/>
    <trip id="bike242" type="bike_bicycle" depart="403.19" departLane="best" from="800384378" to="805231225"/>
    <trip id="bike243" type="bike_bicycle" depart="404.86" departLane="best" from="-803758020" to="236471188#0"/>
    <trip id="bike244" type="bike_bicycle" depart="406.52" departLane="best" from="133882604#4" to="171867126#8"/>
    <trip id="bike245" type="bike_bicycle" depart="408.19" departLane="best" from="-186263433#1" to="-186263426#0"/>
    <trip id="bike246" type="bike_bicycle" depart="409.86" departLane="best" from="-805215212" to="-133755125#8"/>
    <trip id="bike249" type="bike_bicycle" depart="414.86" departLane="best" from="-806281524" to="-171870076#0"/>
    <trip id="bike250" type="bike_bicycle" depart="416.52" departLane="best" from="171870085#0" to="-133755125#4"/>
    <trip id="bike251" type="bike_bicycle" depart="418.19" departLane="best" from="-800669874" to="135530186#15"/>
    <trip id="bike252" type="bike_bicycle" depart="419.85" departLane="best" from="-133755125#5" to="171904516#4"/>
    <trip id="bike253" type="bike_bicycle" depart="421.52" departLane="best" from="-171870088#0" to="-806271844"/>
    <trip id="bike254" type="bike_bicycle" depart="423.19" departLane="best" from="-133755132#5" to="-800610493"/>
    <trip id="bike255" type="bike_bicycle" depart="424.85" departLane="best" from="-186262687#7" to="-668986454#3"/>
    <trip id="bike256" type="bike_bicycle" depart="426.52" departLane="best" from="246982753#1" to="-800610493"/>
    <trip id="bike257" type="bike_bicycle" depart="428.18" departLane="best" from="236471196" to="706318007"/>
    <trip id="bike258" type="bike_bicycle" depart="429.85" departLane="best" from="-229635299#7" to="-158486424#10"/>
    <trip id="bike259" type="bike_bicycle" depart="431.52" departLane="best" from="-133755118#0" to="133755130#6"/>
    <trip id="bike261" type="bike_bicycle" depart="434.85" departLane="best" from="173655926#2" to="286438371#1"/>
    <trip id="bike262" type="bike_bicycle" depart="436.51" departLane="best" from="173655926#5" to="236471196"/>
    <trip id="bike263" type="bike_bicycle" depart="438.18" departLane="best" from="805231221" to="-186258456"/>
    <trip id="bike264" type="bike_bicycle" depart="439.85" departLane="best" from="-133755118#1" to="-171904516#4"/>
    <trip id="bike267" type="bike_bicycle" depart="444.84" departLane="best" from="186262687#15" to="246985854#1"/>
    <trip id="bike268" type="bike_bicycle" depart="446.51" departLane="best" from="-173655932#1" to="171867129"/>
    <trip id="bike269" type="bike_bicycle" depart="448.18" departLane="best" from="236471191" to="-171867129"/>
    <trip id="bike270" type="bike_bicycle" depart="449.84" departLane="best" from="546666120" to="806271840#1"/>
    <trip id="bike271" type="bike_bicycle" depart="451.51" departLane="best" from="-171867126#3" to="-133755125#2"/>
    <trip id="bike273" type="bike_bicycle" depart="454.84" departLane="best" from="806271835#1" to="-800669877"/>
    <trip id="bike274" type="bike_bicycle" depart="456.51" departLane="best" from="229635038#0" to="-135530186#21"/>
    <trip id="bike275" type="bike_bicycle" depart="458.17" departLane="best" from="186258457" to="171870088#1"/>
    <trip id="bike276" type="bike_bicycle" depart="459.84" departLane="best" from="-171865797#2" to="246985864#2"/>
    <trip id="bike277" type="bike_bicycle" depart="461.51" departLane="best" from="715685827" to="171867126#2"/>
    <trip id="bike278" type="bike_bicycle" depart="463.17" departLane="best" from="-171867136#0" to="806355598#3"/>
    <trip id="bike279" type="bike_bicycle" depart="464.84" departLane="best" from="286440385#0" to="-713329449"/>
    <trip id="bike280" type="bike_bicycle" depart="466.50" departLane="best" from="-803758035#0" to="-800610483#4"/>
    <trip id="bike281" type="bike_bicycle" depart="468.17" departLane="best" from="133637883#2" to="-706734276#0"/>
    <trip id="bike282" type="bike_bicycle" depart="469.84" departLane="best" from="715685826#2" to="668986453#1"/>
    <trip id="bike283" type="bike_bicycle" depart="471.50" departLane="best" from="-171865797#8" to="806271837#5"/>
    <trip id="bike284" type="bike_bicycle" depart="473.17" departLane="best" from="171902841#0" to="706173404#2"/>
    <trip id="bike286" type="bike_bicycle" depart="476.50" departLane="best" from="229635056#0" to="806271841#0"/>
    <trip id="bike287" type="bike_bicycle" depart="478.17" departLane="best" from="-246982755#1" to="306475947#1"/>
    <trip id="bike289" type="bike_bicycle" depart="481.50" departLane="best" from="-805215211" to="229635046#0"/>
    <trip id="bike290" type="bike_bicycle" depart="483.16" departLane="best" from="-246982751" to="800307537"/>
    <trip id="bike291" type="bike_bicycle" depart="484.83" departLane="best" from="706318004#0" to="-158486424#18"/>
    <trip id="bike292" type="bike_bicycle" depart="486.50" departLane="best" from="800610496" to="-229635056#0"/>
    <trip id="bike293" type="bike_bicycle" depart="488.16" departLane="best" from="-806281521" to="171867131#1"/>
    <trip id="bike294" type="bike_bicycle" depart="489.83" departLane="best" from="-800610495#0" to="-133755125#7"/>
    <trip id="bike297" type="bike_bicycle" depart="494.83" departLane="best" from="-706734276#0" to="800610495#0"/>
    <trip id="bike298" type="bike_bicycle" depart="496.49" departLane="best" from="186262687#5" to="-246985860#0"/>
    <trip id="bike299" type="bike_bicycle" depart="498.16" departLane="best" from="-133637487#3" to="805215219"/>
    <trip id="bike300" type="bike_bicycle" depart="499.83" departLane="best" from="-158486424#16" to="229635038#5"/>
    <trip id="bike301" type="bike_bicycle" depart="501.49" departLane="best" from="-812556707#1" to="245441027#7"/>
    <trip id="bike302" type="bike_bicycle" depart="503.16" departLane="best" from="186258457" to="171904518"/>
    <trip id="bike303" type="bike_bicycle" depart="504.82" departLane="best" from="-817230300" to="290520225#2"/>
    <trip id="bike304" type="bike_bicycle" depart="506.49" departLane="best" from="-171865789" to="-186263433#1"/>
    <trip id="bike308" type="bike_bicycle" depart="513.15" departLane="best" from="236471188#0" to="-706173405#0"/>
    <trip id="bike309" type="bike_bicycle" depart="514.82" departLane="best" from="186262687#8" to="-246982755#1"/>
    <trip id="bike310" type="bike_bicycle" depart="516.49" departLane="best" from="-229635299#5" to="-171867135#1"/>
    <trip id="bike311" type="bike_bicycle" depart="518.15" departLane="best" from="-186254736#5" to="-171867133"/>
    <trip id="bike312" type="bike_bicycle" depart="519.82" departLane="best" from="133755130#2" to="246982753#0"/>
    <trip id="bike315" type="bike_bicycle" depart="524.82" departLane="best" from="806281538" to="133755126#12"/>
    <trip id="bike316" type="bike_bicycle" depart="526.48" departLane="best" from="-246989098#0" to="-171865797#1"/>