<routes>
    
    <vType accel="1.0" decel="5.0" id="car0" length="2.0" maxSpeed="100.0" sigma="0.0" />
    <route id="route0" edges="1to2 2to3"/>
    <vehicle depart="1" id="veh0" route="route0" type="car0" />
    
    <vType accel="2.0" decel="5.0" id="car1" length="3.0" maxSpeed="150.0" sigma="0.0" />
    <route id="route1" edges="9to8 8to7"/>
    <vehicle depart="1" id="veh1" route="route1" type="car1" />
    
    <vType accel="1.0" decel="5.0" id="car2" length="2.0" maxSpeed="100.0" sigma="0.0" />
    <route id="route2" edges="4to5 5to6"/>
    <vehicle depart="1" id="veh2" route="route2" type="car2" />
    
    <vType accel="2.0" decel="5.0" id="car3" length="3.0" maxSpeed="150.0" sigma="0.0" />
    <route id="route3" edges="12to11 11to10"/>
    <vehicle depart="1" id="veh3" route="route3" type="car3" />

</routes>