<nodes>
    
    <node id="1" x="-20" y="-500"/> 
    <node id="2" x="-20" y="0"/>
    <node id="3" x="-20" y="500"/>
    
    <node id="7" x="20" y="-500"/>
    <node id="8" x="20" y="0"/>
    <node id="9" x="20" y="500"/>
    
    <node id="4" x="-500" y="20"/>
    <node id="5" x="0" y="20"/>
    <node id="6" x="500" y="20"/>
    
    <node id="10" x="-500" y="-20"/>
    <node id="11" x="0" y="-20"/>
    <node id="12" x="500" y="-20"/>

</nodes>