<configuration>
    <input>
        <net-file value="first.net.xml"/>
        <route-files value="first.rou.xml"/>
    </input>
    <time>
        <begin value="0"/>
        <end value="10000"/>
    </time>
</configuration>