<edges>
    
    <edge from="1" id="1to2" to="2"/>
    <edge from="2" id="2to3" to="3"/>
    
    <edge from="9" id="9to8" to="8"/>
    <edge from="8" id="8to7" to="7"/>
    
    <edge from="4" id="4to5" to="5"/>
    <edge from="5" id="5to6" to="6"/>
    
    <edge from="12" id="12to11" to="11"/>
    <edge from="11" id="11to10" to="10"/>

</edges>