<?xml version="1.0" encoding="UTF-8"?>

<!-- generated on Wed Dec 30 07:12:19 2020 by Eclipse SUMO duarouter Version 1.7.0
<configuration xmlns:xsi="http://www.w3.org/2001/XMLSchema-instance" xsi:noNamespaceSchemaLocation="http://sumo.dlr.de/xsd/duarouterConfiguration.xsd">

    <input>
        <net-file value="osm.net.xml"/>
        <route-files value="bus_trips.xml"/>
    </input>

    <output>
        <output-file value="bus_routes.rou.xml"/>
        <alternatives-output value="bus_routes.rou.alt.xml"/>
    </output>

    <time>
        <begin value="0"/>
        <end value="3600"/>
    </time>

    <report>
        <no-warnings value="true"/>
        <ignore-errors value="true"/>
        <no-step-log value="true"/>
    </report>

</configuration>
-->

<routes xmlns:xsi="http://www.w3.org/2001/XMLSchema-instance" xsi:noNamespaceSchemaLocation="http://sumo.dlr.de/xsd/routes_file.xsd">
    <vType id="bus" vClass="bus" accel="0.8"/>
    <vehicle id="bus0" type="bus" depart="0.00">
        <route edges="374530997#1 -374530997#1 -588939865 -133755118#4"/>
    </vehicle>
    <vehicle id="bus1" type="bus" depart="30.00">
        <route edges="-804207582 804207582 804217356#1 804217356#3 804217356#4 804217356#6 804217356#8 804217356#9 804217356#11 804207589#2 817117729#1 804207591#0 804207591#5 374529118#4 374529118#5 374529118#6 374529123#0 374529123#1 -374529123#1"/>
    </vehicle>
    <vehicle id="bus2" type="bus" depart="60.00">
        <route edges="374533525#5 374529118#6 374529118#7 374529122#0 374529122#1 374532416#1 374532416#2 374532416#3 374532416#4 374532416#5"/>
    </vehicle>
    <vehicle id="bus3" type="bus" depart="90.00">
        <route edges="gneE53 gneE54 gneE55 gneE56 gneE67 gneE57 gneE58 gneE59 gneE60 gneE61 gneE62 gneE63 gneE64 gneE73 gneE74 gneE75 374529112#3 374533524#5 374533524#6 374533524#1 374533524#2 374533524#3 gneE45 gneE46 -gneE27 -133755126#15 -133755126#14 -133755126#13 -133755126#11 -133755126#10 -133755126#9 -133755126#8"/>
    </vehicle>
    <vehicle id="bus4" type="bus" depart="120.00">
        <route edges="135530186#2 -374529123#1 -374529123#0 374529118#7 374529118#1 374529118#2 374529115 804217356#1 804217356#3 804217356#4 804217356#6 804217356#8 804217356#9 804217356#11 804207589#2 133755126#0 -133755126#0"/>
    </vehicle>
    <vehicle id="bus5" type="bus" depart="150.00">
        <route edges="-374529123#0 374529118#7 374529118#1 374529118#2 374529118#3 gneE85 gneE82 374533525#4 171870086#0 171870085#0 171870085#1"/>
    </vehicle>
    <vehicle id="bus6" type="bus" depart="180.00">
        <route edges="-133755118#4 133755118#4 133755118#5 374530997#1 804207591#5 374529118#4 374529118#5 374529118#6 374529118#7 374529122#0 374529122#1 374532416#1 374532416#2 374532416#3 374532416#4 374532416#5 -gneE0 -186250480#3 -186250480#2 -186250480#1 -186250480#0"/>
    </vehicle>
    <vehicle id="bus7" type="bus" depart="210.00">
        <route edges="374532416#10 374532416#11 374532416#12 374529120#0 374529120#1 374529120#3 374529120#4 374529120#6 374529120#7 374529120#8 374529120#9 374529120#10 374529120#11 374529120#12 374529118#2"/>
    </vehicle>
    <vehicle id="bus8" type="bus" depart="240.00">
        <route edges="-374529123#1 -374529123#0 374529118#7 374529122#0 374529122#1 374532416#1 374532416#2 374529120#10 374529120#11"/>
    </vehicle>
    <vehicle id="bus9" type="bus" depart="270.00">
        <route edges="804217356#11 804207589#2 133755126#0 133755126#1 133755118#0 -133755118#0"/>
    </vehicle>
    <vehicle id="bus10" type="bus" depart="300.00">
        <route edges="804217356#1 804217356#3 804217356#4 804217356#6 804217356#8 804217356#9 804217356#11 804207589#2 133755126#0 133755126#1 133755126#2 133755126#3 133755126#4 133755126#5 133755126#6 133755126#7 133755126#8 133755126#9 133755126#10 133755126#11 133755126#13 133755126#14 133755126#15 gneE27 gneE70 gneE76 gneE75 374529112#3 374533524#5 374533524#6 374533524#1 374533524#2"/>
    </vehicle>
    <vehicle id="bus11" type="bus" depart="330.00">
        <route edges="133755118#5 374530997#1 804207591#5 gneE85 gneE82 -158486424#9 171867130#0 171867130#1 171867130#2 -171867130#2"/>
    </vehicle>
    <vehicle id="bus12" type="bus" depart="360.00">
        <route edges="gneE72 gneE49 gneE50 gneE51 gneE52 gneE53 gneE54 gneE55 gneE56 gneE67 gneE57 gneE58 gneE59 gneE60 gneE61 gneE62 gneE63 gneE64 gneE73 gneE74 gneE75 374529112#3 374533524#5 374533524#6 374533524#1 374533524#2 374533524#3 gneE45 gneE46 -gneE27 -133755126#15 -133755126#14 -133755126#13 -133755126#11 -133755126#10 -133755126#9 -133755126#8 -133755126#7 -133755126#6 -133755126#5 -133755126#4 -133755126#3 -133755126#2 133755118#0 133755118#1 133755118#2 133755118#3 133755118#4"/>
    </vehicle>
    <vehicle id="bus13" type="bus" depart="390.00">
        <route edges="-133755126#9 -133755126#8 -133755126#7 -133755126#6 -133755126#5 -133755126#4 -133755126#3 -133755126#2 133755118#0 133755118#1 133755118#2 133755118#3 133755118#4 133755118#5 374530997#1 804207591#5 374529118#4 374529118#5 374529118#6 374529123#0 374529123#1 -135530186#2 -135530186#1 -135530186#0"/>
    </vehicle>
    <vehicle id="bus14" type="bus" depart="420.00">
        <route edges="gneE1 -135530186#2 135530186#2 -gneE1 -804207576 186250480#0 186250480#1 186250480#2 186250480#3 gneE0 374529120#6"/>
    </vehicle>
    <vehicle id="bus15" type="bus" depart="450.00">
        <route edges="804217356#1 804217356#3 804217356#4 804217356#6 804217356#8 804217356#9 804217356#11 804207589#2 817117729#1 804207591#0 804207591#5 gneE85 gneE82 374533525#4"/>
    </vehicle>
    <vehicle id="bus16" type="bus" depart="480.00">
        <route edges="374529115 804217356#1 804217356#3 804217356#4 804217356#6 804217356#8 804217356#9 804217356#11 804207589#2 133755126#0 133755126#1 133755126#2 133755126#3 133755126#4 133755126#5 133755126#6 133755126#7 133755126#8 133755126#9 133755126#10 133755126#11 133755126#13 133755126#14 133755126#15 gneE27 gneE70 gneE76 gneE75"/>
    </vehicle>
    <vehicle id="bus17" type="bus" depart="510.00">
        <route edges="133755126#2 -133755126#2 133755118#0 133755118#1 133755118#2 133755118#3 133755118#4 133755118#5 374530997#1 804207591#5 374529118#4 374529118#5 374529118#6 374529118#7 374529118#1 374529118#2 374529118#3"/>
    </vehicle>
    <vehicle id="bus18" type="bus" depart="540.00">
        <route edges="804217356#8 804217356#9 804217356#11 804207589#2 817117729#1 804207591#0 804207591#5 374529118#4 374529118#5 374529118#6 374529118#7 374529122#0 374529122#1 374532416#1 374532416#2 374532416#3 374532416#4 374529120#8 374529120#9"/>
    </vehicle>
    <vehicle id="bus19" type="bus" depart="570.00">
        <route edges="gneE45 gneE46 gneE70 gneE76 gneE75 374529112#3 374533524#5 374533524#6 374533525#0 374533525#1 gneE80 374533525#4 374533525#5 374529118#6 374529118#7 374529122#0 374529122#1 374532416#1 374532416#2 374532416#3 374532416#4 374532416#5 374532416#6 374532416#7 374532416#9 374532416#10 374532416#11 374532416#12 374529120#0 374529120#1"/>
    </vehicle>
    <vehicle id="bus20" type="bus" depart="600.00">
        <route edges="374533524#3 gneE45 gneE46 -gneE27 -133755126#15 -133755126#14 -133755126#13"/>
    </vehicle>
    <vehicle id="bus21" type="bus" depart="630.00">
        <route edges="-588939865 133755118#5 374530997#1 804207591#5 gneE85 gneE82 -158486424#9 -158486424#8 -158486424#7 -158486424#6 -158486424#5 -158486424#4 -158486424#3 gneE2 -800669863 800669863 -gneE2"/>
    </vehicle>
    <vehicle id="bus22" type="bus" depart="660.00">
        <route edges="-133755126#6 133755126#6 133755126#7 133755126#8 133755126#9 133755126#10 133755126#11 133755126#13 706318004#0 -706318004#0"/>
    </vehicle>
    <vehicle id="bus23" type="bus" depart="690.00">
        <route edges="-135530186#1 135530186#1 135530186#2 -374529123#1 -374529123#0 374529118#7 374529122#0 374529122#1 374532416#1 374532416#2 374532416#3 374532416#4 374532416#5 -gneE0"/>
    </vehicle>
    <vehicle id="bus24" type="bus" depart="720.00">
        <route edges="374529123#1 -374529123#1 -374529123#0 374529118#7 374529118#1 374529118#2 374529118#3 gneE85 gneE83 578203893 374533524#2 374533524#3 gneE45 gneE46 -gneE27 -133755126#15 -133755126#14 -133755126#13 133755126#13"/>
    </vehicle>
    <vehicle id="bus25" type="bus" depart="750.00">
        <route edges="133755126#14 133755126#15 gneE27 gneE70 gneE76 gneE75 374529112#3 374533524#5 374533524#6 374533525#0 374533525#1 gneE80 374533525#4 374533525#5 374529118#6 374529118#7 374529122#0 374529122#1 374532416#1 374532416#2 374532416#3 374532416#4 374532416#5 -gneE0 -186250480#3 -186250480#2"/>
    </vehicle>
    <vehicle id="bus26" type="bus" depart="780.00">
        <route edges="-800669863 800669863 -gneE2 158486424#3 158486424#4 158486424#5 158486424#6 158486424#7 158486424#8 171867130#0 171867130#1 171867130#2 171867130#3 374533524#6 374533524#1 374533524#2 374533524#3 gneE45 gneE46 gneE70 gneE71 gneE72 gneE49 gneE50 gneE51 gneE52 gneE53 gneE54 gneE55 gneE56 gneE67 gneE57 gneE58 gneE59 gneE60 gneE61 gneE62 gneE63"/>
    </vehicle>
    <vehicle id="bus27" type="bus" depart="810.00">
        <route edges="374532416#10 374532416#11 374532416#12 374529120#0 374529120#1 374529120#3 374529120#4 374529120#6 374529120#7"/>
    </vehicle>
    <vehicle id="bus28" type="bus" depart="840.00">
        <route edges="-171867136#3 -171867136#2 -171867136#1 -122612356#1 -gneE77 gneE75 374529112#3 374533524#5 374533524#6 374533525#0 374533525#1 gneE80 374533525#4"/>
    </vehicle>
    <vehicle id="bus29" type="bus" depart="870.00">
        <route edges="-171867136#1 -122612356#1 -gneE77 gneE75 374529112#3 374533524#5 374533524#6 374533524#1 374533524#2 374533524#3 gneE45 gneE46 -gneE27 -133755126#15 -133755126#14 -133755126#13 -133755126#11 -133755126#10 -133755126#9 -133755126#8 -133755126#7 -133755126#6 -133755126#5 -133755126#4 -133755126#3 -133755126#2 133755126#2"/>
    </vehicle>
    <vehicle id="bus30" type="bus" depart="900.00">
        <route edges="gneE82 374533525#4 374533525#5 374529118#6 374529118#7 374529118#1 374529118#2 374529115 804217356#1 804217356#3 804217356#4 804217356#6 804217356#8 804217356#9 804217356#11 804207589#2 133755126#0 133755126#1 133755118#0 133755118#1 133755118#2 133755118#3 133755118#4 133755118#5 374530997#1"/>
    </vehicle>
    <vehicle id="bus31" type="bus" depart="930.00">
        <route edges="374529118#4 374529118#5 374529118#6 374529118#7 374529122#0 374529122#1 374532416#1 374532416#2 374532416#3 374532416#4 374532416#5 374532416#6 374532416#7"/>
    </vehicle>
    <vehicle id="bus32" type="bus" depart="960.00">
        <route edges="gneE0 374529120#6 374529120#7 374529120#8 374529120#9 374529120#10 374529120#11 374529120#12 374529118#2 374529118#3 gneE85 gneE82 -158486424#9 171867130#0 171867130#1 -800610495#1 800610496"/>
    </vehicle>
    <vehicle id="bus33" type="bus" depart="990.00">
        <route edges="-588939865 -133755118#4 -133755118#3 -133755118#2 -133755118#1 -133755118#0 -133755126#1"/>
    </vehicle>
    <vehicle id="bus34" type="bus" depart="1020.00">
        <route edges="122612356#1 171867136#1 171867136#2 171867136#3 800610495#0 800610495#1 -171867130#1 -171867130#0 -158486424#8 -158486424#7 -158486424#6 -158486424#5 -158486424#4 -158486424#3 gneE2 -800669863"/>
    </vehicle>
    <vehicle id="bus35" type="bus" depart="1050.00">
        <route edges="-186250480#3 186250480#3 gneE0 374529120#6 374529120#7 374529120#8 374529120#9 374529120#10 374529120#11 374529120#12 374529118#2 374529118#3 gneE85 gneE83 578203893 374533524#2 374533524#3 gneE45 gneE46 gneE70 gneE71 gneE72 gneE49 gneE50 gneE51 gneE52 gneE53 gneE54 gneE55 gneE56 gneE67"/>
    </vehicle>
    <vehicle id="bus36" type="bus" depart="1080.00">
        <route edges="gneE50 gneE51 gneE52 gneE53 gneE54 gneE55 gneE56 gneE67 gneE57 gneE58 gneE59 gneE60 gneE61 gneE62 gneE63 gneE64 gneE73 gneE74 gneE77 122612356#1"/>
    </vehicle>
    <vehicle id="bus37" type="bus" depart="1110.00">
        <route edges="374532416#11 374532416#12 374529120#0 374529120#1 374529120#3 374529120#4 374529120#6 374529120#7 374529120#8 374529120#9 374529120#10 374529120#11 374529120#12 374529118#2 374529118#3 gneE85 gneE83 578203893 374533524#2 374533524#3 gneE45 gneE46 -gneE27 -133755126#15 -133755126#14 -133755126#13 -133755126#11 -133755126#10 -133755126#9 -133755126#8 -133755126#7 -133755126#6 133755126#6"/>
    </vehicle>
    <vehicle id="bus38" type="bus" depart="1140.00">
        <route edges="gneE58 gneE59 gneE60 gneE61 gneE62 gneE63 gneE64 gneE73 gneE74 gneE75 374529112#3 374533524#5 -171867130#3 -171867130#2 -171867130#1 -171867130#0 158486424#9"/>
    </vehicle>
    <vehicle id="bus39" type="bus" depart="1170.00">
        <route edges="-800669863 800669863 -gneE2 158486424#3 -800610494"/>
    </vehicle>
    <vehicle id="bus40" type="bus" depart="1200.00">
        <route edges="374529118#5 374529118#6 374529118#7 374529118#1 374529118#2 374529118#3 gneE85 gneE82 -158486424#9 171867130#0 171867130#1 -800610495#1 800610496 -800610496"/>
    </vehicle>
    <vehicle id="bus41" type="bus" depart="1230.00">
        <route edges="374529120#10 374529120#11 374529120#12 374529118#2 374529118#3 gneE85 gneE83 578203893 374533524#2 374533524#3 gneE45 gneE46 gneE70 gneE71 gneE72 gneE49 gneE50 gneE51 gneE52 gneE53 gneE54 gneE55"/>
    </vehicle>
    <vehicle id="bus42" type="bus" depart="1260.00">
        <route edges="133755126#7 -133755126#7 -133755126#6 -133755126#5 -133755126#4 -133755126#3 -133755126#2 133755118#0 133755118#1 133755118#2 133755118#3 133755118#4 133755118#5 374530997#1 804207591#5 374529118#4 374529118#5 374529118#6 374529123#0 374529123#1 -374529123#1"/>
    </vehicle>
    <vehicle id="bus43" type="bus" depart="1290.00">
        <route edges="gneE85 gneE82 374533525#4 171870086#0"/>
    </vehicle>
    <vehicle id="bus44" type="bus" depart="1320.00">
        <route edges="-133755126#9 133755126#9 133755126#10 133755126#11 133755126#13 -133755126#13"/>
    </vehicle>
    <vehicle id="bus45" type="bus" depart="1350.00">
        <route edges="-158486424#0 158486424#0 800669863 -gneE2 158486424#3 158486424#4 158486424#5 158486424#6 158486424#7 -171870085#1 -171870085#0 -171870086#0 374533525#5 374529118#6 374529118#7 374529122#0 374529122#1"/>
    </vehicle>
    <vehicle id="bus46" type="bus" depart="1380.00">
        <route edges="804207589#2 817117729#1 804207591#0 804207591#5 374529118#4 374529118#5 374529118#6 374529123#0 374529123#1 -135530186#2 135530186#2"/>
    </vehicle>
    <vehicle id="bus47" type="bus" depart="1410.00">
        <route edges="-133755126#3 133755126#3"/>
    </vehicle>
    <vehicle id="bus48" type="bus" depart="1440.00">
        <route edges="gneE85 gneE82 374533525#4 374533525#5 374529118#6 374529118#7 374529122#0 374529122#1 374532416#1 374532416#2 374532416#3 374532416#4 374532416#5 -gneE0 -186250480#3 186250480#3"/>
    </vehicle>
    <vehicle id="bus49" type="bus" depart="1470.00">
        <route edges="gneE75 374529112#3 374533524#5 374533524#6 374533525#0 374533525#1 gneE80 374533525#4 374533525#5 374529118#6 374529123#0 374529123#1 -135530186#2 -135530186#1 -135530186#0 gneE3"/>
    </vehicle>
    <vehicle id="bus50" type="bus" depart="1500.00">
        <route edges="-133755118#1 -133755118#0 133755126#2 133755126#3 133755126#4 133755126#5 133755126#6 133755126#7 133755126#8 133755126#9 133755126#10 133755126#11 133755126#13 133755126#14 133755126#15 gneE27 gneE70 gneE76 gneE75 374529112#3 374533524#5 374533524#6 374533525#0"/>
    </vehicle>
    <vehicle id="bus51" type="bus" depart="1530.00">
        <route edges="374532416#6 374532416#7 374532416#9 374532416#10 374532416#11 374532416#12 374529120#0 374529120#1 374529120#3 374529120#4 374529120#6 374529120#7 374529120#8 374529120#9 374529120#10 374529120#11 374529120#12 374529118#2 374529115"/>
    </vehicle>
    <vehicle id="bus52" type="bus" depart="1560.00">
        <route edges="-800669863 800669863 -gneE2 158486424#3 158486424#4 158486424#5 158486424#6 158486424#7 158486424#8 171867130#0 171867130#1 171867130#2 171867130#3 374533524#6 374533524#1 374533524#2 374533524#3 gneE45 gneE46 -gneE27 -133755126#15 -133755126#14 -133755126#13 -133755126#11 -133755126#10 -133755126#9 -133755126#8 -133755126#7 -133755126#6 -133755126#5 -133755126#4 -133755126#3 -133755126#2 133755118#0 133755118#1 133755118#2 133755118#3 133755118#4 133755118#5 374530997#1"/>
    </vehicle>
    <vehicle id="bus53" type="bus" depart="1590.00">
        <route edges="-158486424#0 158486424#0 800669863 -gneE2 158486424#3 158486424#4"/>
    </vehicle>
    <vehicle id="bus54" type="bus" depart="1620.00">
        <route edges="158486424#8 171867130#0 171867130#1 171867130#2 171867130#3 374533524#6 374533524#1 374533524#2 374533524#3 gneE45 gneE46 gneE70 gneE71"/>
    </vehicle>
    <vehicle id="bus55" type="bus" depart="1650.00">
        <route edges="gneE50 gneE51 gneE52 gneE53 gneE54 gneE55 gneE56 gneE67 gneE57 gneE58 gneE59 gneE60 gneE61 gneE62 gneE63 gneE64 gneE73 gneE74 gneE75 -171867136#4 800610495#0 800610496 -800610496"/>
    </vehicle>
    <vehicle id="bus56" type="bus" depart="1680.00">
        <route edges="171870085#0 171870085#1 158486424#8 171867130#0 171867130#1 171867130#2 -171870082"/>
    </vehicle>
    <vehicle id="bus57" type="bus" depart="1710.00">
        <route edges="gneE58 gneE59 gneE60 gneE61 gneE62 gneE63 gneE64 gneE73 gneE74 gneE75 374529112#3 374533524#5 374533524#6 374533524#1 374533524#2 374533524#3 gneE45 gneE46"/>
    </vehicle>
    <vehicle id="bus58" type="bus" depart="1740.00">
        <route edges="-gneE3 135530186#0 135530186#1 135530186#2 -374529123#1 -374529123#0 374529118#7 374529118#1 374529118#2 374529115 804217356#1 804217356#3 804217356#4 804217356#6 804217356#8 804217356#9 804217356#11 804207589#2 133755126#0 133755126#1 133755118#0 133755118#1 133755118#2 133755118#3 133755118#4 133755118#5 374530997#1"/>
    </vehicle>
    <vehicle id="bus59" type="bus" depart="1770.00">
        <route edges="374529120#7 374529120#8 374529120#9 374529120#10 374529120#11 374529120#12 374529118#2 374529118#3 gneE85 gneE82 -158486424#9 171867130#0 171867130#1 171867130#2 -171867130#2"/>
    </vehicle>
    <vehicle id="bus60" type="bus" depart="1800.00">
        <route edges="800610494 158486424#4 158486424#5 158486424#6 158486424#7 -171870085#1 -171870085#0 -171870086#0 374533525#5 374529118#6 374529118#7 374529118#1 374529118#2 374529115"/>
    </vehicle>
    <vehicle id="bus61" type="bus" depart="1830.00">
        <route edges="800669863 -gneE2 158486424#3 158486424#4 158486424#5 158486424#6 158486424#7 -171870085#1 -171870085#0 -171870086#0 374533525#5 374529118#6 374529118#7 374529122#0 374529122#1 374532416#1 374532416#2 374532416#3 374532416#4 374532416#5 -gneE0 -186250480#3 186250480#3"/>
    </vehicle>
    <vehicle id="bus62" type="bus" depart="1860.00">
        <route edges="-122612356#1 -gneE77 gneE75 374529112#3 374533524#5 374533524#6 374533524#1 374533524#2 374533524#3 gneE45 gneE46 -gneE27 -133755126#15 -133755126#14 -133755126#13 -133755126#11 -133755126#10 -133755126#9 -133755126#8 -133755126#7 -133755126#6 -133755126#5 -133755126#4 -133755126#3 -133755126#2 133755118#0 133755118#1"/>
    </vehicle>
    <vehicle id="bus63" type="bus" depart="1890.00">
        <route edges="-133755118#3 -133755118#2 -133755118#1 -133755118#0 133755126#2 133755126#3 133755126#4 133755126#5 133755126#6 133755126#7 133755126#8 133755126#9 133755126#10 133755126#11 133755126#13 133755126#14 133755126#15 gneE27 gneE70 gneE71 gneE72 gneE49 gneE50 gneE51 gneE52 gneE53 gneE54 gneE55 gneE56 gneE67 gneE57 gneE58 gneE59 gneE60 gneE61 gneE62"/>
    </vehicle>
    <vehicle id="bus64" type="bus" depart="1920.00">
        <route edges="gneE50 gneE51 gneE52 gneE53 gneE54 gneE55 gneE56 gneE67 gneE57 gneE58 gneE59 gneE60 gneE61 gneE62 gneE63 gneE64 gneE73 gneE74 gneE75 374529112#3 374533524#5 374533524#6 374533525#0 374533525#1 gneE80 374533525#4 374533525#5 374529118#6 374529118#7 374529118#1 374529118#2 374529115 804217356#1 804217356#3 804217356#4 804217356#6 804217356#8 804217356#9"/>
    </vehicle>
    <vehicle id="bus65" type="bus" depart="1950.00">
        <route edges="-gneE77 gneE75 374529112#3 374533524#5 374533524#6 374533524#1 374533524#2 374533524#3 gneE45 gneE46 -gneE27 -133755126#15"/>
    </vehicle>
    <vehicle id="bus66" type="bus" depart="1980.00">
        <route edges="gneE50 gneE51 gneE52 gneE53 gneE54 gneE55 gneE56 gneE67 gneE57 gneE58 gneE59 gneE60 gneE61 gneE62 gneE63 gneE64 gneE73 gneE74 gneE75 374529112#3 374533524#5 374533524#6 374533524#1 374533524#2 374533524#3 gneE45 gneE46 gneE70"/>
    </vehicle>
    <vehicle id="bus67" type="bus" depart="2010.00">
        <route edges="-133755126#8 133755126#8 133755126#9 133755126#10 133755126#11 133755126#13 133755126#14 133755126#15 gneE27 gneE70 gneE76 gneE77 122612356#1 171867136#1 171867136#2"/>
    </vehicle>
    <vehicle id="bus68" type="bus" depart="2040.00">
        <route edges="-133755126#4 133755126#4 133755126#5 133755126#6 133755126#7 133755126#8 133755126#9 133755126#10 133755126#11 133755126#13 133755126#14 133755126#15 gneE27 gneE70 gneE76 gneE75 374529112#3 374533524#5 -171867130#3 -171867130#2 -171867130#1 -171867130#0 -158486424#8 -158486424#7 -158486424#6 -158486424#5 -158486424#4 -800610494 800610494"/>
    </vehicle>
    <vehicle id="bus69" type="bus" depart="2070.00">
        <route edges="800610495#0 800610495#1 -171867130#1 -171867130#0 -158486424#8 -158486424#7 -158486424#6"/>
    </vehicle>
    <vehicle id="bus70" type="bus" depart="2100.00">
        <route edges="171867130#3 374533524#6 374533525#0 374533525#1 gneE80 374533525#4 374533525#5 374529118#6 374529118#7 374529118#1 374529118#2 374529118#3"/>
    </vehicle>
    <vehicle id="bus71" type="bus" depart="2130.00">
        <route edges="-800669863 800669863 -gneE2 158486424#3 158486424#4 158486424#5 158486424#6 158486424#7 158486424#8 171867130#0 171867130#1 171867130#2 171867130#3 374533524#6 374533524#1 374533524#2 374533524#3 gneE45 gneE46 gneE70 gneE71 gneE72 gneE49"/>
    </vehicle>
    <vehicle id="bus72" type="bus" depart="2160.00">
        <route edges="135530186#2 -gneE1 -804207576 186250480#0 186250480#1 186250480#2 186250480#3 -186250480#3"/>
    </vehicle>
    <vehicle id="bus73" type="bus" depart="2190.00">
        <route edges="374529115 804217356#1 804217356#3 804217356#4 804217356#6 804217356#8 804217356#9 804217356#11 804207589#2 817117729#1 804207591#0 804207591#5 gneE85 gneE82 374533525#4"/>
    </vehicle>
    <vehicle id="bus74" type="bus" depart="2220.00">
        <route edges="-186250480#1 -186250480#0 543878926#1 gneE1 -374529123#1 -374529123#0 374529118#7 374529118#1 374529118#2 374529118#3 gneE85 gneE82 -158486424#9 158486424#9 -gneE82"/>
    </vehicle>
    <vehicle id="bus75" type="bus" depart="2250.00">
        <route edges="gneE83 578203893 374533524#2 374533524#3 374533524#4 374533524#5 374533524#6 374533525#0 374533525#1 gneE80 374533525#4 374533525#5 374529118#6 374529118#7 374529122#0 374529122#1 374532416#1 374532416#2 374532416#3 374532416#4 374532416#5 374532416#6 374532416#7 374532416#9 374532416#10"/>
    </vehicle>
    <vehicle id="bus76" type="bus" depart="2280.00">
        <route edges="158486424#5 158486424#6 158486424#7 -171870085#1 -171870085#0 -171870086#0 374533525#5 374529118#6 374529123#0 374529123#1 -gneE1 -804207576 186250480#0"/>
    </vehicle>
    <vehicle id="bus77" type="bus" depart="2310.00">
        <route edges="-158486424#5 158486424#5 158486424#6 158486424#7 158486424#8 171867130#0 171867130#1 171867130#2 171867130#3 374533524#6 374533524#1 374533524#2 374533524#3 gneE45 gneE46 -gneE27 -133755126#15 -133755126#14 -133755126#13 -133755126#11 -133755126#10 -133755126#9 -133755126#8 -133755126#7 -133755126#6 -133755126#5 -133755126#4 -133755126#3 -133755126#2 133755118#0 133755118#1 133755118#2 133755118#3 133755118#4 133755118#5 374530997#1 -374530997#1"/>
    </vehicle>
    <vehicle id="bus78" type="bus" depart="2340.00">
        <route edges="133755118#4 133755118#5 374530997#1 804207591#5 374529118#4 374529118#5 374529118#6 374529118#7 374529122#0 374529122#1 374532416#1 374532416#2 374529120#10 374529120#11"/>
    </vehicle>
    <vehicle id="bus79" type="bus" depart="2370.00">
        <route edges="-588939865 133755118#5 374530997#1 804207591#5 374529118#4 374529118#5 374529118#6 374529123#0 374529123#1 -374529123#1"/>
    </vehicle>
    <vehicle id="bus80" type="bus" depart="2400.00">
        <route edges="-133755126#4 -133755126#3 -133755126#2 133755118#0 133755118#1 133755118#2 133755118#3 133755118#4 133755118#5 374530997#1 804207591#5 374529118#4 374529118#5 374529118#6 374529123#0"/>
    </vehicle>
    <vehicle id="bus81" type="bus" depart="2430.00">
        <route edges="-588939865 -133755118#4 -133755118#3 -133755118#2 -133755118#1 -133755118#0 133755126#2 133755126#3 133755126#4 133755126#5 133755126#6 133755126#7 133755126#8 133755126#9 133755126#10 133755126#11 133755126#13 133755126#14 133755126#15 gneE27 gneE70 gneE71 gneE72 gneE49 gneE50 gneE51 gneE52 gneE53 gneE54 gneE55 gneE56"/>
    </vehicle>
    <vehicle id="bus82" type="bus" depart="2460.00">
        <route edges="gneE3 158486424#0 800669863 -gneE2 158486424#3 158486424#4 158486424#5 158486424#6 158486424#7 158486424#8 171867130#0 171867130#1 171867130#2 171867130#3 374533524#6 374533524#1 374533524#2 374533524#3 gneE45 gneE46 -gneE27 -133755126#15 -133755126#14 -133755126#13 -133755126#11 -133755126#10 -133755126#9 -133755126#8 -133755126#7 -133755126#6 -133755126#5 -133755126#4"/>
    </vehicle>
    <vehicle id="bus83" type="bus" depart="2490.00">
        <route edges="-706318004#1 -706318004#0 133755126#14 133755126#15 gneE27 gneE70 gneE76 gneE75 374529112#3 374533524#5 374533524#6 374533525#0 374533525#1 gneE80 374533525#4 374533525#5 374529118#6 374529118#7 374529122#0 374529122#1 374532416#1 374532416#2 374532416#3"/>
    </vehicle>
    <vehicle id="bus84" type="bus" depart="2520.00">
        <route edges="-186250480#3 186250480#3 gneE0 374529120#6 374529120#7 374529120#8 374529120#9 374529120#10 374529120#11 374529120#12 374529118#2 374529118#3 gneE85 gneE82 -158486424#9 -158486424#8 -158486424#7"/>
    </vehicle>
    <vehicle id="bus85" type="bus" depart="2550.00">
        <route edges="gneE63 gneE64 gneE73 gneE74 gneE75 374529112#3 374533524#5 374533524#6 374533525#0 374533525#1 gneE80 374533525#4 374533525#5 374529118#6 374529118#7"/>
    </vehicle>
    <vehicle id="bus86" type="bus" depart="2580.00">
        <route edges="171867130#2 -171867130#2 -171867130#1 -171867130#0 158486424#9 374533525#4 374533525#5 374529118#6 374529118#7 374529118#1 374529118#2 374529115 -804207582 804207582"/>
    </vehicle>
    <vehicle id="bus87" type="bus" depart="2610.00">
        <route edges="804217356#1 804217356#3 804217356#4 804217356#6 804217356#8 804217356#9 804217356#11 804207589#2 817117729#1 804207591#0 804207591#5 gneE85 gneE82 -158486424#9 -158486424#8 -171870085#1"/>
    </vehicle>
    <vehicle id="bus88" type="bus" depart="2640.00">
        <route edges="-135530186#0 gneE3 158486424#0 800669863 -gneE2 158486424#3"/>
    </vehicle>
    <vehicle id="bus89" type="bus" depart="2670.00">
        <route edges="135530186#2 -374529123#1 -374529123#0 374529118#7 374529118#1 374529118#2 374529118#3 gneE85 gneE82 -158486424#9 171867130#0 171867130#1"/>
    </vehicle>
    <vehicle id="bus90" type="bus" depart="2700.00">
        <route edges="374533525#4 374533525#5 374529118#6 374529118#7 374529122#0 374529122#1 374532416#1 374532416#2 374532416#3 374532416#4"/>
    </vehicle>
    <vehicle id="bus91" type="bus" depart="2730.00">
        <route edges="gneE80 374533525#4 374533525#5 374529118#6 374529123#0 374529123#1 -135530186#2 -135530186#1"/>
    </vehicle>
    <vehicle id="bus92" type="bus" depart="2760.00">
        <route edges="133755126#8 -133755126#8 -133755126#7 -133755126#6 -133755126#5 -133755126#4 -133755126#3 -133755126#2 133755118#0 133755118#1 133755118#2 133755118#3 133755118#4 133755118#5"/>
    </vehicle>
    <vehicle id="bus93" type="bus" depart="2790.00">
        <route edges="gneE45 gneE46 gneE70 gneE76 gneE75 374529112#3 374533524#5 -171867130#3 -171867130#2 -171867130#1 -171867130#0 -158486424#8 -158486424#7 -158486424#6 -158486424#5 -158486424#4 -800610494"/>
    </vehicle>
    <vehicle id="bus94" type="bus" depart="2820.00">
        <route edges="-171870085#1 171870085#1 -158486424#7 158486424#7"/>
    </vehicle>
    <vehicle id="bus95" type="bus" depart="2850.00">
        <route edges="135530186#2 -374529123#1 -374529123#0 374529118#7 374529122#0 374529122#1 374532416#1 374532416#2 374532416#3 374532416#4 374532416#5 -gneE0"/>
    </vehicle>
    <vehicle id="bus96" type="bus" depart="2880.00">
        <route edges="-800610494 800610494 158486424#4 158486424#5 158486424#6 158486424#7 158486424#8 171867130#0 171867130#1 171867130#2 171867130#3 374533524#6 374533524#1 374533524#2 374533524#3 gneE45 gneE46 gneE70 gneE71 gneE72 gneE49 gneE50 gneE51 gneE52 gneE53 gneE54 gneE55 gneE56 gneE67 gneE57 gneE58 gneE59 gneE60"/>
    </vehicle>
    <vehicle id="bus97" type="bus" depart="2910.00">
        <route edges="158486424#6 158486424#7 -171870085#1 -171870085#0 -171870086#0 374533525#5 374529118#6 374529123#0 374529123#1 -135530186#2 -135530186#1 -135530186#0 gneE3"/>
    </vehicle>
    <vehicle id="bus98" type="bus" depart="2940.00">
        <route edges="374529118#3 gneE85 gneE83 578203893 374533524#2 374533524#3 gneE45 gneE46 -gneE27 -133755126#15 -133755126#14"/>
    </vehicle>
    <vehicle id="bus99" type="bus" depart="2970.00">
        <route edges="gneE85 gneE82 374533525#4 374533525#5 374529118#6 374529118#7 374529118#1 374529118#2 374529115 804217356#1 804217356#3 804217356#4 804217356#6 804217356#8 804217356#9 804217356#11 804207589#2 817117729#1"/>
    </vehicle>
    <vehicle id="bus100" type="bus" depart="3000.00">