<?xml version="1.0" encoding="UTF-8"?>

<!-- generated on Tue Dec 29 18:42:45 2020 by Eclipse SUMO duarouter Version 1.7.0
<configuration xmlns:xsi="http://www.w3.org/2001/XMLSchema-instance" xsi:noNamespaceSchemaLocation="http://sumo.dlr.de/xsd/duarouterConfiguration.xsd">

    <input>
        <net-file value="osm.net.xml"/>
        <additional-files value="osm_stops.add.xml,osm_pt.rou.xml"/>
        <route-files value="osm.pedestrian.trips.xml"/>
    </input>

    <output>
        <output-file value="osm.pedestrian.rou.xml"/>
        <alternatives-output value="osm.pedestrian.rou.alt.xml"/>
    </output>

    <time>
        <begin value="0"/>
        <end value="3600"/>
    </time>

    <report>
        <no-warnings value="true"/>
        <ignore-errors value="true"/>
        <no-step-log value="true"/>
    </report>

</configuration>
-->

<routes xmlns:xsi="http://www.w3.org/2001/XMLSchema-instance" xsi:noNamespaceSchemaLocation="http://sumo.dlr.de/xsd/routes_file.xsd">
    <vType id="ped_pedestrian" vClass="pedestrian"/>
    <person id="ped0" type="ped_pedestrian" depart="0.00">
        <walk edges="186258773#0 -133755126#11 -133755126#10 -133755126#9 -133755126#8 -133755126#7 -133755126#6 -133755126#5 -133755126#4 -133755126#3 -133755126#2 133755118#0 133755118#1 -133755118#1"/>
    </person>
    <person id="ped1" type="ped_pedestrian" depart="1.00">
        <walk edges="-374529123#1 -gneE1 543878926#1 -186250480#0 -186250480#1 -186250480#2"/>
    </person>
    <person id="ped2" type="ped_pedestrian" depart="2.00">
        <walk edges="706318005 706318004#0 -133755126#14 -133755126#15 -gneE27 gneE70 -gneE76 gneE77 122612374#0 -706734275#3 186263438#0 186263438#1 290625965"/>
    </person>
    <person id="ped3" type="ped_pedestrian" depart="3.00">
        <walk edges="gneE51 gneE50 gneE49 gneE72 gneE71 gneE70 -gneE27 -133755126#15 -133755126#14 -133755126#13 -133755126#11 -133755126#10 -133755126#9 -133755126#8 -133755126#7 -133755126#6"/>
    </person>
    <person id="ped4" type="ped_pedestrian" depart="4.00">
        <walk edges="122612374#2 -186263433#0 -364433566 186263438#0 -706734275#3 122612374#0 gneE77 -gneE76 gneE70 -gneE27 -133755126#15 -133755126#14 -133755126#13 -133755126#11 -133755126#10 -133755126#9 -133755126#8 -133755126#7 -133755126#6 -133755126#5 -133755126#4 -133755126#3 -133755126#2 133755118#0 133755118#1 -133755118#2"/>
    </person>
    <person id="ped5" type="ped_pedestrian" depart="5.00">
        <walk edges="-186250480#1 -186250480#0 543878926#1 -gneE1 135530186#2 135530186#1 135530186#0 -gneE3 158486424#0 800669863 -gneE2 -158486424#3 -158486424#4 -158486424#5 -158486424#6 -158486424#7 -158486424#8 -158486424#9 -gneE82 gneE83 -133755127#2 -133755127#1 133755127#0 133755118#4 133755118#3 133755118#2 133755118#1 133755118#0 -133755126#2 -133755126#3 -133755126#4 -133755126#5 133755126#6 133755126#7 133755126#8"/>
    </person>
    <person id="ped6" type="ped_pedestrian" depart="6.00">
        <walk edges="-133755118#1 133755118#2 133755118#3 133755118#4 133755127#0 -133755127#1 -133755127#2 gneE83 -gneE82 -158486424#9 171867130#0 171867130#1 171867130#2 -171870082"/>
    </person>
    <person id="ped7" type="ped_pedestrian" depart="7.00">
        <walk edges="186259469 -133755118#4 133755127#0 -133755127#1 -133755127#2 gneE83 -gneE82 -158486424#9 -158486424#8 -158486424#7 -158486424#6 -158486424#5 -158486424#4 -158486424#3 158486424#3"/>
    </person>
    <person id="ped8" type="ped_pedestrian" depart="8.00">
        <walk edges="-186250480#1 -186250480#0 543878926#1 -gneE1 135530186#2 135530186#1 135530186#0 -gneE3 158486424#0 800669863 -gneE2 -158486424#3 -158486424#4 -158486424#5 -158486424#6 -158486424#7 -158486424#8 -171867130#0 -171867130#1 800610495#1 800610495#0 171867136#3 171867136#2 171867136#1 171867136#0"/>
    </person>
    <person id="ped9" type="ped_pedestrian" depart="9.00">
        <walk edges="804207591#0 817117729#1 -133755126#0 -133755126#1 -133755126#2 -133755126#3 -133755126#4 -133755126#5 -133755126#6 -133755126#7 -133755126#8 -133755126#9 -133755126#10 -133755126#11 -133755126#13 -133755126#14 -133755126#15 -gneE27 gneE70 -gneE76 gneE77 122612374#0 -122612374#0"/>
    </person>
    <person id="ped10" type="ped_pedestrian" depart="10.00">
        <walk edges="804207589#2 804207589#1 817117729#1 -133755126#0 -133755126#1 -133755118#0 -133755118#1 133755118#2 133755118#3 133755118#4 133755118#5 374530997#1"/>
    </person>
    <person id="ped11" type="ped_pedestrian" depart="11.00">
        <walk edges="-800610495#0 800610495#1 -171867130#1 -171867130#0 -158486424#8"/>
    </person>
    <person id="ped12" type="ped_pedestrian" depart="12.00">
        <walk edges="gneE71 -gneE76 gneE75 -171867136#4 800610495#0 800610495#1 -171867130#1 -171867130#0 -158486424#8 -158486424#7 -158486424#6 -158486424#5 -158486424#4 -800610494"/>
    </person>
    <person id="ped13" type="ped_pedestrian" depart="13.00">
        <walk edges="-133755126#7 -133755126#8"/>
    </person>
    <person id="ped14" type="ped_pedestrian" depart="14.00">
        <walk edges="817117729#1 -133755126#0 -133755126#1 -133755118#0 -133755118#1 133755118#2 133755118#3 133755118#4 133755127#0 -133755127#1 -133755127#2 gneE83 -gneE82 -158486424#9 171867130#0 171867130#1 -800610495#1 -800610495#0 171867136#4"/>
    </person>
    <person id="ped15" type="ped_pedestrian" depart="15.00">
        <walk edges="804207589#2 804207589#1 817117729#1 133755126#0 133755126#1 133755126#2 133755126#3 133755126#4 133755126#5 133755126#6 133755126#7 133755126#8 133755126#9 133755126#10 133755126#11 133755126#13 706318004#0 706318004#1"/>
    </person>
    <person id="ped16" type="ped_pedestrian" depart="16.00">
        <walk edges="135530186#2 135530186#1 135530186#0 -gneE3 158486424#0 800669863 -gneE2 -158486424#3 -158486424#4 -158486424#5 -158486424#6 -158486424#7 -158486424#8 -171867130#0 -171867130#1 800610495#1 800610495#0 -171867136#4 gneE75"/>
    </person>
    <person id="ped17" type="ped_pedestrian" depart="17.00">
        <walk edges="-gneE1 135530186#2 135530186#1 135530186#0 -gneE3 158486424#0 800669863 -gneE2 158486424#3 158486424#4 158486424#5"/>
    </person>
    <person id="ped18" type="ped_pedestrian" depart="18.00">
        <walk edges="804217356#4 804217356#6 804217356#8 804217356#9 804217356#11 804207589#1 817117729#1 -133755126#0 -133755126#1 -133755118#0 -133755118#1 133755118#2 133755118#3 133755118#4 133755127#0 -133755127#1 -133755127#2 gneE83 -gneE82 -158486424#9 158486424#8 171870085#1"/>
    </person>
    <person id="ped19" type="ped_pedestrian" depart="19.00">
        <walk edges="gneE2 -158486424#3 -158486424#4 -158486424#5 -158486424#6 -158486424#7 -158486424#8 171867130#0 171867130#1"/>
    </person>
    <person id="ped20" type="ped_pedestrian" depart="20.00">
        <walk edges="543878926#1 -gneE1 135530186#2 135530186#1 135530186#0 -gneE3 158486424#0 800669863 -gneE2 -158486424#3 -158486424#4 -158486424#5 -158486424#6 -158486424#7 -158486424#8 -158486424#9 -gneE82 gneE83 -133755127#2 -133755127#1 133755127#0 133755118#4 133755118#3 133755118#2 -133755118#1 -133755118#0 -133755126#1"/>
    </person>
    <person id="ped21" type="ped_pedestrian" depart="21.00">
        <walk edges="-186250480#3 -186250480#2 -186250480#1 -186250480#0 543878926#1 -gneE1 135530186#2 135530186#1 135530186#0 -gneE3 158486424#0 800669863 -gneE2 -158486424#3 -158486424#4 -158486424#5 -158486424#6 -158486424#7 -158486424#8 -171867130#0 -171867130#1 800610495#1 800610495#0 171867136#3 171867136#2 171867136#1 171867136#0 -706734276#0 706734275#0 706734275#1 -186263433#2 290625965 186263438#1 -364433566 -186263433#0 122612374#2 122612374#3 -609872584"/>
    </person>
    <person id="ped22" type="ped_pedestrian" depart="22.00">
        <walk edges="-133755126#4 -133755126#5 -133755126#6 -133755126#7 -133755126#8 -133755126#9 -133755126#10 -133755126#11 -186258773#0"/>
    </person>
    <person id="ped23" type="ped_pedestrian" depart="23.00">
        <walk edges="-133755126#9 -133755126#10 -133755126#11 -133755126#13 -133755126#14 -133755126#15 -gneE27 gneE70 -gneE76 gneE75 -171867136#4 800610495#0 800610495#1 -171867130#1 -171867130#0 -158486424#8 -158486424#7 -158486424#6 -158486424#5 -158486424#4 -158486424#3 -gneE2 800669863 158486424#0 -gneE3 135530186#0 135530186#1 135530186#2 -374529123#1"/>
    </person>
    <person id="ped24" type="ped_pedestrian" depart="24.00">
        <walk edges="186250480#3 186250480#2 186250480#1 186250480#0 -804207576 -gneE1 135530186#2 135530186#1 135530186#0 -gneE3 158486424#0 800669863 -gneE2 -158486424#3 -158486424#4 -158486424#5 -158486424#6 -158486424#7 -158486424#8 -158486424#9 -gneE82 gneE83 -133755127#2 -133755127#1 133755127#0 133755118#4 133755118#3 133755118#2 -133755118#1 -133755118#0 -133755126#1 -133755126#0 817117729#1 804207589#1 804217356#11 804217356#9 804217356#8 804217356#6 804217356#4 804217356#3 804217356#1 -804207582"/>
    </person>
    <person id="ped25" type="ped_pedestrian" depart="25.00">
        <walk edges="-817230302 -706734275#0 -706734276#0 171867136#0 171867136#1 171867136#2 171867136#3 800610495#0 800610495#1 -171867130#1 -171867130#0 -158486424#8 -171870085#1 -171870085#0 -171870086#0"/>
    </person>
    <person id="ped26" type="ped_pedestrian" depart="26.00">
        <walk edges="-364433566 186263438#0 -706734275#3 122612374#0 gneE77 gneE74 gneE73 gneE64 gneE63 gneE62"/>
    </person>
    <person id="ped27" type="ped_pedestrian" depart="27.00">
        <walk edges="186259469 -133755118#4 133755127#0 -133755127#1 -133755127#2 gneE83 -gneE82 -158486424#9 171867130#0 171867130#1 171867130#2 171870082"/>
    </person>
    <person id="ped28" type="ped_pedestrian" depart="28.00">
        <walk edges="-171867130#2 -800610495#1 -800610495#0 -171867136#4 gneE75 -gneE76 gneE70 -gneE27 -133755126#15 -133755126#14 706318004#0"/>
    </person>
    <person id="ped29" type="ped_pedestrian" depart="29.00">
        <walk edges="-171867130#0 -158486424#8 -158486424#7 -158486424#6 -158486424#5 -158486424#4 -158486424#3 -gneE2 800669863 158486424#0 -gneE3 135530186#0 135530186#1 135530186#2 -gneE1"/>
    </person>
    <person id="ped30" type="ped_pedestrian" depart="30.00">
        <walk edges="gneE82 gneE83 -133755127#2 -133755127#1 133755127#0 133755118#4 133755118#3 133755118#2 133755118#1 133755118#0 -133755126#2 -133755126#3 -133755126#4 -133755126#5 -133755126#6 -133755126#7 -133755126#8 -133755126#9 -133755126#10 -133755126#11 186258773#0"/>
    </person>
    <person id="ped31" type="ped_pedestrian" depart="31.00">
        <walk edges="158486424#6 158486424#7 158486424#8 -158486424#9 -gneE82 gneE83 -133755127#2 -133755127#1 133755127#0 133755118#4 133755118#3 133755118#2 -133755118#1 -133755118#0 -133755126#1 -133755126#0 817117729#1 804207589#1 804217356#11 804217356#9 804217356#8 804217356#6 804217356#4 804217356#3 804217356#1 374529115"/>
    </person>
    <person id="ped32" type="ped_pedestrian" depart="32.00">
        <walk edges="804217356#9 804217356#11 804207589#1 817117729#1 -133755126#0 -133755126#1 -133755118#0 -133755118#1 133755118#2 133755118#3 133755118#4 133755127#0 -133755127#1 -133755127#2 gneE83 -gneE82 -158486424#9 171867130#0 171867130#1 800610495#1 800610495#0"/>
    </person>
    <person id="ped33" type="ped_pedestrian" depart="33.00">
        <walk edges="-186250480#3 -186250480#2 -186250480#1 -186250480#0 543878926#1 -gneE1 135530186#2 135530186#1 135530186#0 -gneE3 158486424#0 800669863 -gneE2 -158486424#3 -158486424#4 -158486424#5 -158486424#6 -158486424#7 -158486424#8 -158486424#9 -gneE82 gneE83 -133755127#2 -133755127#1 133755127#0 -133755118#4 -133755118#3 -133755118#2"/>
    </person>
    <person id="ped34" type="ped_pedestrian" depart="34.00">
        <walk edges="-706734275#2 -186263438#0 -364433566"/>
    </person>
    <person id="ped35" type="ped_pedestrian" depart="35.00">
        <walk edges="-171870086#0 -171870085#0 -171870085#1 -158486424#8 -171867130#0 -171867130#1 800610495#1 800610495#0 -171867136#4 gneE75 gneE74 gneE73 gneE64"/>
    </person>
    <person id="ped36" type="ped_pedestrian" depart="36.00">
        <walk edges="gneE45 gneE46 gneE70 -gneE76 gneE77 122612374#0 -706734275#3 -706734275#2"/>
    </person>
    <person id="ped37" type="ped_pedestrian" depart="37.00">
        <walk edges="186263433#0 -364433566 186263438#0 -706734275#3 122612374#0 gneE77 -gneE76"/>
    </person>
    <person id="ped38" type="ped_pedestrian" depart="38.00">
        <walk edges="gneE57 gneE58 gneE59 gneE60 gneE61 gneE62 gneE63 gneE64 gneE73 gneE74 -gneE76 gneE70 -gneE27 -133755126#15 -133755126#14 -133755126#13 -133755126#11 -133755126#10 -133755126#9 -133755126#8 -133755126#7 -133755126#6 -133755126#5 -133755126#4 133755126#3 133755126#2 133755126#1"/>
    </person>
    <person id="ped39" type="ped_pedestrian" depart="39.00">
        <walk edges="-288926324#5 -706734276#1 706734275#0 706734275#1 -186263433#2 -186263433#1"/>
    </person>
    <person id="ped40" type="ped_pedestrian" depart="40.00">
        <walk edges="158486424#7 -158486424#8 -171867130#0 -171867130#1 800610495#1 800610495#0 171867136#3 171867136#2 171867136#1 171867136#0 -706734276#3 -706734276#2 -288926324#5"/>
    </person>
    <person id="ped41" type="ped_pedestrian" depart="41.00">
        <walk edges="171867130#3 -171867130#2 -800610495#1 -800610495#0 -171867136#4 gneE75 -gneE76 gneE71 gneE72 gneE49 gneE50 gneE51 gneE52 gneE53"/>
    </person>
    <person id="ped42" type="ped_pedestrian" depart="42.00">
        <walk edges="-gneE77 gneE75 -171867136#4 800610495#0 800610495#1 -171867130#1 -171867130#0 -158486424#8 -158486424#7 -158486424#6 -158486424#5 -158486424#4 -158486424#3 -gneE2 800669863 158486424#0 -gneE3 135530186#0 135530186#1 135530186#2 -gneE1 543878926#1 -186250480#0 -186250480#1"/>
    </person>
    <person id="ped43" type="ped_pedestrian" depart="43.00">
        <walk edges="gneE85 gneE83 -133755127#2 -133755127#1 133755127#0 133755118#4 133755118#3 133755118#2 133755118#1 133755118#0 -133755126#2 -133755126#3 -133755126#4 -133755126#5 133755126#6 133755126#7 133755126#8 133755126#9"/>
    </person>
    <person id="ped44" type="ped_pedestrian" depart="44.00">
        <walk edges="-133755126#7 -133755126#6 -133755126#5 -133755126#4 -133755126#3 -133755126#2 -133755126#1"/>
    </person>
    <person id="ped45" type="ped_pedestrian" depart="45.00">
        <walk edges="-133755127#1 -133755127#2 gneE83 -gneE82 -158486424#9 -158486424#8 -158486424#7 -158486424#6 -158486424#5 -158486424#4 -158486424#3 -gneE2 800669863 158486424#0 -gneE3 135530186#0 135530186#1 135530186#2 -gneE1 -804207576 186250480#0 186250480#1"/>
    </person>
    <person id="ped47" type="ped_pedestrian" depart="47.00">
        <walk edges="-133755126#14 -133755126#15 -gneE27 gneE70 -gneE76 gneE75 -171867136#4 800610495#0 800610495#1 -171867130#1 -171867130#0 -158486424#8 -158486424#7 -158486424#6 -158486424#5 -158486424#4 -158486424#3 -gneE2"/>
    </person>
    <person id="ped48" type="ped_pedestrian" depart="48.00">
        <walk edges="gneE85 -gneE82 -158486424#9 -158486424#8 -158486424#7 -158486424#6 -158486424#5 -158486424#4 -158486424#3 -gneE2 800669863 158486424#0 -gneE3 135530186#0 135530186#1"/>
    </person>
    <person id="ped49" type="ped_pedestrian" depart="49.00">
        <walk edges="gneE74 gneE75 -171867136#4 800610495#0 800610495#1 -171867130#1 -171867130#0 -158486424#8 -158486424#7 -158486424#6 -158486424#5 -158486424#4 -158486424#3 gneE2"/>
    </person>
    <person id="ped51" type="ped_pedestrian" depart="51.00">
        <walk edges="364433566 186263438#1 290625965 -186263433#2 706734275#1 706734275#0 -706734276#0 171867136#0 171867136#1 171867136#2 171867136#3 800610495#0 800610495#1 -171867130#1 -171867130#0 -158486424#8 -158486424#7 -158486424#6 -158486424#5 -158486424#4 -158486424#3 -gneE2 800669863 158486424#0"/>
    </person>
    <person id="ped52" type="ped_pedestrian" depart="52.00">
        <walk edges="-364433566 186263438#0 -706734275#3 122612374#0 gneE77 -gneE76 gneE70 -gneE27 -133755126#15 -133755126#14 -133755126#13 186258773#0"/>
    </person>
    <person id="ped53" type="ped_pedestrian" depart="53.00">
        <walk edges="-133755127#2 -133755127#1 133755127#0 133755118#4 133755118#3 133755118#2"/>
    </person>
    <person id="ped54" type="ped_pedestrian" depart="54.00">
        <walk edges="133755126#0 133755126#1 133755126#2 133755126#3 -133755126#4 -133755126#5 -133755126#6 -133755126#7 -133755126#8 -133755126#9 -133755126#10 -133755126#11 -133755126#13 -133755126#14 -133755126#15 -gneE27 gneE70"/>
    </person>
    <person id="ped55" type="ped_pedestrian" depart="55.00">
        <walk edges="gneE45 gneE46 gneE70 -gneE76 gneE77 122612374#0 706734275#3 706734275#2 706734275#1 706734275#0 -706734276#1 -288926324#5"/>
    </person>
    <person id="ped56" type="ped_pedestrian" depart="56.00">
        <walk edges="133755126#7 133755126#8 133755126#9 -133755126#10 -133755126#11 -133755126#13 -133755126#14 -133755126#15 -gneE27 gneE70 -gneE76 gneE77 -122612356#1 -171867136#0"/>
    </person>
    <person id="ped57" type="ped_pedestrian" depart="57.00">
        <walk edges="gneE56 gneE55 gneE54 gneE53 gneE52 gneE51 gneE50 gneE49 gneE72 gneE71 -gneE76 gneE75 -171867136#4 800610495#0 800610495#1 -171867130#1 -171867130#0 -158486424#8 -158486424#7 -158486424#6 -158486424#5 -158486424#4 -158486424#3 -gneE2 800669863 158486424#0 gneE3"/>
    </person>
    <person id="ped58" type="ped_pedestrian" depart="58.00">
        <walk edges="-706318004#1 -706318004#0 133755126#14 133755126#15 -gneE27 gneE70 -gneE76 gneE75 -171867136#4 800610495#0 800610495#1 -171867130#1 -171867130#0 -158486424#8 -158486424#7 -158486424#6 -158486424#5 -158486424#4 -158486424#3 -gneE2 800669863 158486424#0 -gneE3 135530186#0 135530186#1 135530186#2 -gneE1 -804207576 186250480#0 186250480#1 186250480#2 186250480#3"/>
    </person>
    <person id="ped59" type="ped_pedestrian" depart="59.00">
        <walk edges="171870082 171867130#2 -171867130#1 -171867130#0 -158486424#8"/>
    </person>
    <person id="ped60" type="ped_pedestrian" depart="60.00">
        <walk edges="706734276#3 171867136#0 171867136#1 171867136#2 171867136#3 800610495#0 800610495#1 -171867130#1 -171867130#0 -158486424#8 -158486424#7 -158486424#6 -158486424#5 -158486424#4 -158486424#3 -gneE2 800669863 158486424#0"/>
    </person>
    <person id="ped61" type="ped_pedestrian" depart="61.00">
        <walk edges="800610495#0 800610495#1 -171867130#1 -171867130#0 -158486424#8 -158486424#7 -158486424#6 -158486424#5 -158486424#4 -158486424#3 -gneE2 800669863 158486424#0 -gneE3 135530186#0 135530186#1"/>
    </person>
    <person id="ped62" type="ped_pedestrian" depart="62.00">
        <walk edges="-122612356#1 171867136#0 -706734276#3 -706734276#2 -706734276#1"/>
    </person>
    <person id="ped63" type="ped_pedestrian" depart="63.00">
        <walk edges="-122612374#3 -122612374#2 -186263433#0 -364433566 186263438#0 -706734275#3 122612374#0 gneE77 gneE74 gneE73 gneE64 gneE63 gneE62 gneE61 gneE60"/>
    </person>
    <person id="ped64" type="ped_pedestrian" depart="64.00">
        <walk edges="gneE46 -gneE27 -133755126#15 -133755126#14 -133755126#13 -133755126#11 -133755126#10 -133755126#9 -133755126#8 -133755126#7 -133755126#6 -133755126#5 -133755126#4 -133755126#3 -133755126#2 -133755126#1 -133755126#0 817117729#1 804207589#1 804217356#11 804217356#9 804217356#8 804217356#6 804217356#4"/>
    </person>
    <person id="ped65" type="ped_pedestrian" depart="65.00">
        <walk edges="-706734275#1 -706734275#2 -706734275#3 122612374#0 gneE77 -gneE76 gneE70 -gneE27 -133755126#15 -133755126#14 -133755126#13"/>
    </person>
    <person id="ped66" type="ped_pedestrian" depart="66.00">
        <walk edges="gneE46 gneE70 gneE71 gneE72 gneE49 gneE50 gneE51 gneE52 gneE53 gneE54 gneE55 gneE56 gneE67"/>
    </person>
    <person id="ped67" type="ped_pedestrian" depart="67.00">
        <walk edges="-133755126#5 -133755126#4 133755126#3"/>
    </person>
    <person id="ped68" type="ped_pedestrian" depart="68.00">
        <walk edges="-133755126#15 -gneE27 gneE70 -gneE76 -gneE77 122612374#0 706734275#3 706734275#2 706734275#1 706734275#0 -706734276#1 706734276#2"/>
    </person>
    <person id="ped69" type="ped_pedestrian" depart="69.00">
        <walk edges="706734276#3 171867136#0 171867136#1 171867136#2 171867136#3 800610495#0 800610495#1 -171867130#1 -171867130#0 -158486424#8 -158486424#7 -158486424#6 -158486424#5 -158486424#4 -158486424#3 -gneE2 -800669863 -158486424#0"/>
    </person>
    <person id="ped70" type="ped_pedestrian" depart="70.00">
        <walk edges="133755126#14 133755126#15 -gneE27 gneE70 -gneE76 gneE75 -171867136#4 800610495#0 800610495#1 -171867130#1 -171867130#0 -158486424#8 158486424#7 158486424#6 158486424#5"/>
    </person>
    <person id="ped71" type="ped_pedestrian" depart="71.00">
        <walk edges="-288926324#5 -706734276#2 -706734276#3 171867136#0 171867136#1 171867136#2 171867136#3 800610495#0 800610495#1 -171867130#1 -171867130#0 -158486424#8 -158486424#7 -158486424#6 -158486424#5 -158486424#4 -158486424#3 -gneE2 800669863 158486424#0 gneE3"/>
    </person>
    <person id="ped72" type="ped_pedestrian" depart="72.00">
        <walk edges="122612374#3 122612374#2 -186263433#0 -364433566 186263438#1 290625965 -186263433#2 706734275#1 706734275#0 -706734276#0 171867136#0 171867136#1 171867136#2 171867136#3 800610495#0 800610495#1 -171867130#1 -171867130#0 -158486424#8 -171870085#1 -171870085#0 -171870086#0"/>
    </person>
    <person id="ped73" type="ped_pedestrian" depart="73.00">
        <walk edges="158486424#0 800669863 -gneE2 -158486424#3 -158486424#4 -158486424#5 -158486424#6 -158486424#7 -158486424#8 -171867130#0 -171867130#1 800610495#1 800610495#0 -171867136#4 gneE75 -gneE76 gneE70 -gneE27 133755126#15 133755126#14 -706318004#0 706318004#1"/>
    </person>
    <person id="ped74" type="ped_pedestrian" depart="74.00">
        <walk edges="-171870085#0 -171870085#1 -158486424#8 -171867130#0 -171867130#1 800610495#1 800610495#0 -171867136#4 gneE75 gneE77 122612374#0 -706734275#3 -706734275#2"/>
    </person>
    <person id="ped75" type="ped_pedestrian" depart="75.00">
        <walk edges="gneE83 -133755127#2 -133755127#1 133755127#0 -133755118#4 186259469"/>
    </person>
    <person id="ped76" type="ped_pedestrian" depart="76.00">
        <walk edges="133755118#2 133755118#3 133755118#4 133755127#0 133755127#1"/>
    </person>
    <person id="ped77" type="ped_pedestrian" depart="77.00">
        <walk edges="-135530186#1 -135530186#2 374529123#1 374529123#0 -374529123#0 -374529123#1 -gneE1 543878926#1 -186250480#0 -186250480#1 -186250480#2"/>
    </person>
    <person id="ped78" type="ped_pedestrian" depart="78.00">
        <walk edges="-800610494 -158486424#4 -158486424#5 -158486424#6 -158486424#7 -158486424#8 -171867130#0 -171867130#1 800610495#1 800610495#0 171867136#3 171867136#2 171867136#1 171867136#0"/>
    </person>
    <person id="ped79" type="ped_pedestrian" depart="79.00">
        <walk edges="-186258773#0 186258773#1 -gneE27 gneE70 -gneE76 gneE75 -171867136#4 800610495#0 800610495#1 -171867130#1 -171867130#0 -158486424#8 -158486424#7 -158486424#6 -158486424#5 -158486424#4 -158486424#3 -gneE2 800669863 158486424#0 -gneE3 135530186#0 135530186#1 135530186#2 -gneE1 543878926#1 -186250480#0 -186250480#1"/>
    </person>
    <person id="ped80" type="ped_pedestrian" depart="80.00">
        <walk edges="-133755126#2 133755118#0 133755118#1 133755118#2 133755118#3 133755118#4 133755127#0 -133755127#1 -133755127#2 gneE83 -gneE82 -158486424#9 -158486424#8 -158486424#7 -158486424#6 -158486424#5 -158486424#4 -158486424#3 -gneE2 800669863 158486424#0 -gneE3 135530186#0 135530186#1 135530186#2 -gneE1 -804207576 186250480#0 186250480#1"/>
    </person>
    <person id="ped81" type="ped_pedestrian" depart="81.00">
        <walk edges="-186250480#3 -186250480#2 -186250480#1 -186250480#0 543878926#1 -gneE1 135530186#2 135530186#1 135530186#0 -gneE3 158486424#0 800669863 -gneE2 -158486424#3 -158486424#4 -158486424#5 -158486424#6 -158486424#7 -158486424#8 -171867130#0 -171867130#1 800610495#1 800610495#0 -171867136#4 gneE75 -gneE76 gneE71 gneE72 gneE49 gneE50 gneE51 gneE52 gneE53 gneE54"/>
    </person>
    <person id="ped82" type="ped_pedestrian" depart="82.00">
        <walk edges="gneE1 135530186#2 135530186#1 135530186#0 -gneE3 158486424#0 800669863 -gneE2 -158486424#3 -158486424#4 -158486424#5 -158486424#6 -158486424#7 -158486424#8 -158486424#9 -gneE82 gneE83 -133755127#2 -133755127#1 133755127#0 133755118#4 133755118#3 133755118#2 133755118#1 133755118#0 -133755126#2"/>
    </person>
    <person id="ped83" type="ped_pedestrian" depart="83.00">
        <walk edges="-186259469 -133755118#4 -133755118#3 -133755118#2 133755118#1 133755118#0 -133755126#2 -133755126#3 -133755126#4 -133755126#5 -133755126#6 -133755126#7 -133755126#8 -133755126#9 -133755126#10 -133755126#11 -133755126#13 -133755126#14 -133755126#15 -gneE27 gneE70 -gneE76 gneE77 122612374#0 -706734275#3 186263438#0 186263438#1"/>
    </person>
    <person id="ped84" type="ped_pedestrian" depart="84.00">
        <walk edges="-186250480#0 543878926#1 -gneE1 135530186#2 135530186#1 135530186#0 -gneE3 158486424#0 800669863 -gneE2 -158486424#3"/>
    </person>
    <person id="ped85" type="ped_pedestrian" depart="85.00">
        <walk edges="gneE62 gneE63 gneE64 gneE73 gneE74 gneE75 -171867136#4 800610495#0 800610495#1 171867130#1 171867130#0"/>
    </person>
    <person id="ped86" type="ped_pedestrian" depart="86.00">
        <walk edges="133755126#14 133755126#15 -gneE27 gneE70 -gneE76 gneE75 -171867136#4 -800610495#0 800610496"/>
    </person>
    <person id="ped87" type="ped_pedestrian" depart="87.00">
        <walk edges="804207591#0 817117729#1 -133755126#0 -133755126#1 -133755118#0 -133755118#1 133755118#2 133755118#3 133755118#4 133755127#0 -133755127#1 -133755127#2 gneE83 -gneE82 -158486424#9 171867130#0 171867130#1 800610495#1 800610495#0 -171867136#3"/>
    </person>
    <person id="ped88" type="ped_pedestrian" depart="88.00">
        <walk edges="-133755126#8 -133755126#7 -133755126#6 -133755126#5 -133755126#4 -133755126#3 -133755126#2 133755118#0 133755118#1"/>
    </person>
    <person id="ped89" type="ped_pedestrian" depart="89.00">
        <walk edges="122612374#3 122612374#2 -186263433#0 -364433566 186263438#0 -706734275#3 122612374#0 gneE77 -gneE76 gneE70 -gneE27 -133755126#15 -133755126#14 -133755126#13 -133755126#11 133755126#11"/>
    </person>
    <person id="ped90" type="ped_pedestrian" depart="90.00">
        <walk edges="706318004#0 -133755126#14 -133755126#15 -gneE27 gneE70 -gneE76 gneE77 122612374#0 706734275#3 706734275#2 706734275#1 706734275#0 -706734276#1 288926324#5"/>
    </person>
    <person id="ped91" type="ped_pedestrian" depart="91.00">
        <walk edges="gneE80 -gneE82 gneE83 -133755127#2 -133755127#1 133755127#0 133755118#4 133755118#3 133755118#2 133755118#1 133755118#0 -133755126#2 -133755126#3 -133755126#4 -133755126#5 -133755126#6 -133755126#7 -133755126#8 -133755126#9"/>
    </person>
    <person id="ped92" type="ped_pedestrian" depart="92.00">
        <walk edges="-gneE82 -158486424#9 -158486424#8 -158486424#7 -158486424#6 -158486424#5 -158486424#4 -800610494"/>
    </person>
    <person id="ped93" type="ped_pedestrian" depart="93.00">
        <walk edges="gneE2 -158486424#3 -158486424#4 -158486424#5 -158486424#6 -158486424#7 -158486424#8 -171867130#0 -171867130#1 800610495#1 800610495#0 171867136#3 171867136#2 171867136#1 171867136#0 -706734276#0 706734275#0 706734275#1 -186263433#2 -186263433#1"/>
    </person>
    <person id="ped94" type="ped_pedestrian" depart="94.00">
        <walk edges="-171867136#3 800610495#0 800610495#1 171867130#1 171867130#0 -158486424#9 -gneE82 gneE83 -133755127#2 -133755127#1 133755127#0 133755118#5"/>
    </person>
    <person id="ped95" type="ped_pedestrian" depart="95.00">
        <walk edges="122612374#2 -186263433#0 -364433566 186263438#1 290625965 -186263433#2 706734275#1 706734275#0 -706734276#0 171867136#0 171867136#1 171867136#2 171867136#3 800610495#0 800610495#1 -171867130#1 -171867130#0 -158486424#8 -158486424#7 -158486424#6 -158486424#5 -158486424#4 -158486424#3 -gneE2 800669863 158486424#0 -gneE3 135530186#0 135530186#1 135530186#2 -374529123#1"/>
    </person>
    <person id="ped96" type="ped_pedestrian" depart="96.00">
        <walk edges="-186263433#1 290625965 186263438#1 186263438#0 -706734275#3 122612374#0 gneE77 gneE74 gneE73 gneE64 gneE63 gneE62 gneE61 gneE60 gneE59"/>
    </person>
    <person id="ped97" type="ped_pedestrian" depart="97.00">
        <walk edges="133755118#4 133755127#0 -133755127#1 -133755127#2 gneE83 -gneE82 -158486424#9 -158486424#8 -158486424#7 -158486424#6 -158486424#5 -158486424#4 -158486424#3 gneE2"/>
    </person>
    <person id="ped98" type="ped_pedestrian" depart="98.00">
        <walk edges="158486424#5 158486424#6 158486424#7 -158486424#8 -171867130#0 -171867130#1 800610495#1 800610495#0 -171867136#4 gneE75 -gneE76 gneE70 -gneE27 -133755126#15 -133755126#14 -133755126#13 -133755126#11 -133755126#10"/>
    </person>
    <person id="ped99" type="ped_pedestrian" depart="99.00">
        <walk edges="gneE85 804207591#5 804207591#0 804207589#1 804217356#11 804217356#9 804217356#8 804217356#6"/>
    </person>
    <person id="ped100" type="ped_pedestrian" depart="100.00">
        <walk edges="gneE74 gneE73 gneE64 gneE63 gneE62 gneE61 gneE60"/>
    </person>
    <person id="ped101" type="ped_pedestrian" depart="101.00">
        <walk edges="817230302 706734275#0 -706734276#0 171867136#0 171867136#1 171867136#2 171867136#3 800610495#0 800610495#1 -171867130#1"/>
    </person>
    <person id="ped102" type="ped_pedestrian" depart="102.00">