<?xml version="1.0" encoding="UTF-8"?>

<!-- generated on Mon Jan 11 07:44:05 2021 by Eclipse SUMO netedit Version 1.7.0
<configuration xmlns:xsi="http://www.w3.org/2001/XMLSchema-instance" xsi:noNamespaceSchemaLocation="http://sumo.dlr.de/xsd/netconvertConfiguration.xsd">

    <input>
        <sumo-net-file value="/home/shashwath/Sumo/mini_proj/mod/osm_mod/osm.net.xml"/>
    </input>

    <output>
        <output-file value="/home/shashwath/Sumo/mini_proj/mod/osm_mod/osm.net.xml"/>
        <output.street-names value="true"/>
    </output>

    <processing>
        <geometry.min-radius.fix.railways value="false"/>
        <geometry.max-grade.fix value="false"/>
        <offset.disable-normalization value="true"/>
        <lefthand value="true"/>
    </processing>

    <junctions>
        <no-internal-links value="false"/>
        <no-turnarounds value="true"/>
        <junctions.corner-detail value="5"/>
        <junctions.limit-turn-speed value="5.5"/>
        <rectangular-lane-cut value="false"/>
    </junctions>

    <pedestrian>
        <walkingareas value="true"/>
    </pedestrian>

    <netedit>
        <additional-files value="/home/shashwath/Sumo/mini_proj/mod/osm_mod/p_stop.add.xml"/>
        <route-files value="/home/shashwath/Sumo/mini_proj/mod/osm_mod/custom_flow.rou.xml"/>
    </netedit>

    <report>
        <aggregate-warnings value="5"/>
    </report>

</configuration>
-->

<additional xmlns:xsi="http://www.w3.org/2001/XMLSchema-instance" xsi:noNamespaceSchemaLocation="http://sumo.dlr.de/xsd/additional_file.xsd">
    <parkingArea id="pa1" lane="-122612356#1_1" startPos="574.58" endPos="610.58" roadsideCapacity="15"/>
    <parkingArea id="pa2" lane="122612356#1_1" startPos="6.98" endPos="42.28" roadsideCapacity="15"/>
</additional>
