<configuration>
    <input>
        <net-file value="osm.net.xml"/>
        <route-files value="truck_routes.rou.xml, bus_routes.rou.xml, delivery_routes.rou.xml, osm.passenger.rou.xml, trailer_routes.rou.xml, custom_flow.rou.xml"/>
        <additional-files value="osm_map.poly.xml, p_stop.add.xml"/>
    </input>
    <time>
        <begin value="0"/>
        <end value="10000"/>
    </time>
</configuration>

