<?xml version="1.0" encoding="UTF-8"?>

<!-- generated on Thu Dec 24 22:45:32 2020 by Eclipse SUMO polyconvert Version 1.7.0
<configuration xmlns:xsi="http://www.w3.org/2001/XMLSchema-instance" xsi:noNamespaceSchemaLocation="http://sumo.dlr.de/xsd/polyconvertConfiguration.xsd">

    <input>
        <net-file value="osm.net.xml"/>
        <osm-files value="map.osm"/>
    </input>

    <output>
        <output-file value="reduced_map.poly.xml"/>
    </output>

    <processing>
        <poi-layer-offset value="5"/>
    </processing>

</configuration>
-->

<additional xmlns:xsi="http://www.w3.org/2001/XMLSchema-instance" xsi:noNamespaceSchemaLocation="http://sumo.dlr.de/xsd/additional_file.xsd">
    <location netOffset="-475080.37,-1474039.92" convBoundary="-871.61,-1281.58,11760.74,4071.27" origBoundary="74.761810,13.322047,74.878474,13.370446" projParameter="+proj=utm +zone=43 +ellps=WGS84 +datum=WGS84 +units=m +no_defs"/>

    <poly id="120510755" type="water" color="181,209,209" fill="1" layer="-4.00" shape="1490.859274,1007.722424 1527.570517,1082.924819 1577.318873,1144.623963 1675.993845,1195.133380 1717.102109,1208.999028 1791.415404,1214.000009 1867.394399,1229.362048 1905.787985,1222.096567 1931.832685,1210.407041 1971.565628,1135.625342 2003.458504,1073.535057 2010.122353,1052.749527 2007.414142,1038.950210 1956.106901,989.582397 1880.002339,929.508693 1862.069824,904.939921 1851.962809,875.741786 1855.625075,814.947356 1849.055870,794.515971 1815.521183,773.289378 1744.354676,751.885111 1671.714422,754.546677 1601.468375,733.307875 1511.539834,730.499608 1474.935976,741.789553 1475.558602,847.302891 1486.184512,912.254175 1490.859274,1007.722424"/>
    <poly id="133755116" type="amenity" color="237,199,199" fill="1" layer="-1.00" shape="1892.235293,2100.248070 1910.626369,2142.787358 1935.148068,2199.919298 1957.213376,2246.503071 1975.001537,2280.682312 2048.028604,2304.739721 2174.164808,2322.857854 2204.406487,2268.543617 2234.984367,2201.865170 2168.547054,2172.139462 2043.588654,2126.461308 1953.008757,2090.873307 1892.235293,2100.248070"/>
    <poly id="171870078" type="building" color="255,230,230" fill="1" layer="-1.00" shape="1597.942503,2198.595316 1599.703197,2218.499999 1608.143669,2236.684739 1621.515145,2259.465750 1637.511963,2275.332614 1648.553820,2283.971189 1655.528953,2285.701411 1654.046922,2249.915750 1647.641951,2243.860963 1645.604244,2229.143191 1636.595065,2229.438532 1631.354325,2217.322404 1629.891273,2203.466738 1629.889279,2201.166467 1597.942503,2198.595316"/>
    <poly id="171870079" type="building" color="255,230,230" fill="1" layer="-1.00" shape="1595.310946,2185.901862 1605.483557,2191.079705 1606.365937,2197.139275 1612.754842,2197.133731 1613.619138,2194.832708 1618.264880,2195.116212 1626.965673,2176.341533 1635.973623,2174.608519 1633.046200,2157.867722 1643.797821,2156.420733 1643.498941,2148.911928 1641.460152,2145.452225 1637.677945,2141.994034 1640.002353,2137.656890 1635.647730,2135.935459 1632.747898,2138.536839 1630.092485,2135.785448 1627.254307,2134.560359 1623.875117,2133.822336 1621.156831,2133.492923 1617.637415,2133.385386 1612.808170,2133.787699 1609.398231,2135.051384 1605.696263,2136.713447 1602.536266,2138.994345 1599.701275,2141.440846 1597.527217,2144.329134 1595.645726,2147.438348 1593.508438,2155.258921 1593.297943,2162.259455 1594.212535,2167.998285 1595.482522,2171.491828 1597.044087,2174.067220 1599.082122,2176.653259 1595.310946,2185.901862"/>
    <poly id="171870089" type="amenity" color="237,199,199" fill="1" layer="-1.00" shape="2349.328997,1588.890197 2344.095348,1520.516820 2252.261780,1245.811255 2264.993878,1011.117624 2435.883372,823.767578 2501.482795,871.023164 2577.645504,885.292221 2620.131981,850.454313 2732.036515,884.522956 2821.503019,1024.356541 2804.627886,1125.593347 3036.682863,1177.026814 3011.389856,1301.129276 2947.446646,1595.129462 2665.374173,1541.106133 2599.648841,1796.291662 2577.125529,1953.314963 2574.247909,1982.756409 2678.238297,1998.252250 2635.505850,2308.824352 2564.364145,2298.521182 2423.636806,2183.724590 2427.765481,2174.320982 2394.314164,2159.529950 2414.027446,2113.917169 2425.558657,2008.847014 2434.190076,1919.372488 2475.356303,1822.947844 2503.239089,1743.399321 2530.961094,1626.637448 2349.328997,1588.890197"/>
    <poly id="171870091" type="leisure" color="207,245,201" fill="1" layer="-2.00" shape="2116.588651,2437.113007 2139.837979,2450.364083 2145.062541,2443.724250 2162.201871,2453.817652 2158.146049,2459.582831 2170.801112,2468.220250 2175.441667,2462.443520 2191.736768,2473.035311 2197.165037,2476.779721 2202.378087,2469.321542 2177.891450,2452.643168 2190.361620,2434.739143 2143.579706,2406.213365 2132.840892,2422.667212 2126.156978,2419.498950 2119.492960,2427.013670 2116.012043,2433.939562 2116.588651,2437.113007"/>
    <poly id="171871047" type="water" color="181,209,209" fill="1" layer="-4.00" shape="2142.583383,1920.779302 2158.855020,1928.838584 2175.127143,1937.484001 2181.553235,1981.349617 2191.429529,1981.916329 2210.013690,1971.516212 2220.442448,1946.679944 2220.227975,1936.351019 2219.843653,1917.241392 2226.797882,1894.155385 2239.557797,1872.778625 2239.547080,1860.082902 2230.825034,1854.317468 2207.578167,1844.527775 2197.119107,1833.566091 2194.196883,1822.598035 2173.283540,1819.154263 2174.468197,1837.046722 2179.124504,1849.749571 2159.383547,1862.462017 2144.879274,1882.679100 2136.772801,1913.275167 2142.583383,1920.779302"/>
    <poly id="171902840" type="tourism" color="207,245,201" fill="1" layer="-2.00" shape="2265.445668,1225.982424 2357.479279,1184.345324 2317.046438,1110.494156 2306.011600,1110.503435 2263.622411,1131.318973 2263.376236,1186.149671 2259.329084,1215.304591 2265.445668,1225.982424"/>
    <poly id="171902845" type="tourism" color="207,245,201" fill="1" layer="-2.00" shape="2387.623260,1450.709090 2435.265113,1457.017056 2377.070034,1340.470821 2340.995591,1272.388753 2306.735575,1288.862276 2339.909616,1358.970532 2365.799819,1408.305089 2387.623260,1450.709090"/>
    <poly id="186254016" type="building" color="255,230,230" fill="1" layer="-1.00" shape="1668.170037,1977.630816 1667.589223,1969.668836 1656.728654,1970.441309 1654.054561,1933.628200 1662.976912,1932.990112 1662.417954,1925.260353 1703.662174,1922.294048 1704.801915,1937.974730 1713.269477,1937.359170 1714.705140,1957.153546 1706.367511,1957.746875 1707.605892,1974.798789 1668.170037,1977.630816"/>
    <poly id="186254017" type="building" color="255,230,230" fill="1" layer="-1.00" shape="1658.220925,2005.541296 1671.863908,2004.124994 1677.934631,2061.858803 1664.291676,2063.275103 1658.220925,2005.541296"/>
    <poly id="186254018" type="building" color="255,230,230" fill="1" layer="-1.00" shape="1669.869169,2089.115170 1699.748939,2042.906925 1677.341370,2001.952690 1694.475268,1992.703605 1718.908285,2034.231173 1766.544316,2034.776206 1767.427272,2054.106584 1717.181566,2053.574862 1688.470521,2098.908416 1669.869169,2089.115170"/>
    <poly id="186254019" type="building" color="255,230,230" fill="1" layer="-1.00" shape="1597.097538,1948.739944 1590.536514,1837.879126 1626.930279,1835.746343 1633.491163,1946.618226 1597.097538,1948.739944"/>
    <poly id="186254165" type="building" color="255,230,230" fill="1" layer="-1.00" shape="1861.018491,2128.198830 1881.060639,2126.157837 1901.430587,2178.095576 1884.017916,2190.518705 1889.257068,2200.909677 1917.698934,2182.405712 1891.205323,2111.429606 1859.848925,2115.504098 1861.018491,2128.198830"/>
    <poly id="186254168" type="building" color="255,230,230" fill="1" layer="-1.00" shape="1602.628008,1870.382101 1618.166747,1869.716140 1617.205375,1847.499436 1601.666623,1848.165397 1602.628008,1870.382101"/>
    <poly id="186254169" type="building" color="255,230,230" fill="1" layer="-1.00" shape="1567.507395,1991.707761 1599.990798,1988.450318 1595.108657,1940.425299 1581.779611,1941.763954 1585.405646,1977.326563 1566.240438,1979.256423 1567.507395,1991.707761"/>
    <poly id="186254171" type="building" color="255,230,230" fill="1" layer="-1.00" shape="1627.533318,2019.225753 1623.341452,1967.948784 1636.789823,1966.864403 1640.981663,2018.141374 1627.533318,2019.225753"/>
    <poly id="186254173" type="building" color="255,230,230" fill="1" layer="-1.00" shape="1608.736160,1933.612185 1607.858086,1920.043549 1622.671336,1919.455633 1623.549144,1932.725676 1608.736160,1933.612185"/>
    <poly id="186254175" type="building" color="255,230,230" fill="1" layer="-1.00" shape="1606.850719,1907.227037 1605.855700,1883.683282 1620.928833,1883.061962 1621.923828,1906.594659 1606.850719,1907.227037"/>
    <poly id="186254177" type="building" color="255,230,230" fill="1" layer="-1.00" shape="1576.153813,2097.258451 1574.155343,2065.443429 1601.799560,2063.727394 1599.669311,2029.767038 1636.593290,2027.478977 1638.789451,2062.578355 1610.268145,2064.339349 1612.189802,2095.037480 1576.153813,2097.258451"/>
    <poly id="186254726" type="building" color="255,230,230" fill="1" layer="-1.00" shape="1827.733017,2382.352300 1748.500719,2307.562120 1799.641540,2254.069880 1790.527246,2245.462761 1730.926090,2307.809525 1819.272679,2391.206780 1827.733017,2382.352300"/>
    <poly id="186254727" type="building" color="255,230,230" fill="1" layer="-1.00" shape="1846.503788,2312.343721 1858.858926,2324.597548 1871.485131,2312.034740 1859.129984,2299.769849 1846.503788,2312.343721"/>
    <poly id="186254728" type="building" color="255,230,230" fill="1" layer="-1.00" shape="1828.918152,2375.361989 1806.593531,2354.756144 1837.080493,2322.150096 1861.128240,2344.358043 1853.674178,2352.326927 1840.301086,2339.985505 1824.094735,2357.306779 1835.744713,2368.057177 1828.918152,2375.361989"/>
    <poly id="186254729" type="building" color="255,230,230" fill="1" layer="-1.00" shape="1818.043905,2284.499489 1831.092974,2297.770135 1842.983708,2286.225375 1829.923810,2272.954732 1818.043905,2284.499489"/>
    <poly id="186254730" type="building" color="255,230,230" fill="1" layer="-1.00" shape="1835.978384,2312.352765 1858.867908,2335.059360 1882.010534,2312.025711 1859.121012,2289.319096 1835.978384,2312.352765"/>
    <poly id="186254731" type="building" color="255,230,230" fill="1" layer="-1.00" shape="1738.650401,2249.134832 1711.828466,2249.832590 1712.119737,2261.090407 1736.765632,2261.002771 1743.624826,2253.863794 1738.650401,2249.134832"/>
    <poly id="186254732" type="building" color="255,230,230" fill="1" layer="-1.00" shape="1712.812551,2285.906218 1736.765632,2261.002771 1743.624826,2253.863794 1738.650401,2249.134832 1710.505334,2222.407399 1717.916315,2214.714988 1758.817144,2253.563156 1720.593887,2293.297971 1712.812551,2285.906218"/>
    <poly id="186254735" type="building" color="255,230,230" fill="1" layer="-1.00" shape="1806.857831,2284.376403 1830.961756,2308.884548 1854.169781,2286.348475 1830.055029,2261.840319 1806.857831,2284.376403"/>
    <poly id="186254737" type="building" color="255,230,230" fill="1" layer="-1.00" shape="1776.327923,2329.987912 1783.914095,2337.125495 1805.140622,2314.823324 1824.051825,2332.589938 1833.161281,2323.016067 1782.724121,2275.627388 1774.653270,2284.105540 1798.582235,2306.601068 1776.327923,2329.987912"/>
    <poly id="186258450" type="building" color="255,230,230" fill="1" layer="-1.00" shape="2040.164295,2161.676090 2046.750363,2164.302524 2048.187534,2160.729242 2051.025605,2161.854845 2051.890081,2159.719721 2084.842074,2172.862964 2084.290978,2174.234748 2092.101091,2177.346749 2089.939889,2182.679025 2090.199241,2182.048442 2101.399866,2186.506763 2110.077030,2165.011751 2048.700956,2140.546125 2040.164295,2161.676090"/>
    <poly id="186258451" type="amenity" color="237,199,199" fill="1" layer="-1.00" shape="1932.547415,2564.780231 1863.791957,2495.598725 1875.487009,2483.246837 1884.449160,2491.345401 1945.173681,2552.383339 1932.547415,2564.780231"/>
    <poly id="186258451#1" type="building" color="255,230,230" fill="1" layer="-1.00" shape="1932.547415,2564.780231 1863.791957,2495.598725 1875.487009,2483.246837 1884.449160,2491.345401 1945.173681,2552.383339 1932.547415,2564.780231"/>
    <poly id="186258454" type="building" color="255,230,230" fill="1" layer="-1.00" shape="1925.779705,2526.964221 1951.994013,2499.825107 1905.143963,2455.142591 1914.156147,2445.801069 1984.404065,2512.791743 1946.245637,2552.305009 1937.608267,2544.073439 1966.365023,2514.300120 1958.302031,2506.621002 1932.477200,2533.350594 1925.779705,2526.964221"/>
    <poly id="186258458" type="building" color="255,230,230" fill="1" layer="-1.00" shape="1996.729827,2262.416404 2048.430271,2229.615567 2021.734733,2188.067515 1970.034240,2220.868402 1996.729827,2262.416404"/>
    <poly id="186258461" type="building" color="255,230,230" fill="1" layer="-1.00" shape="1935.659966,2178.055210 1908.735060,2109.191725 1923.348977,2103.561238 1950.273850,2172.424736 1935.659966,2178.055210"/>
    <poly id="186258766" type="building" color="255,230,230" fill="1" layer="-1.00" shape="2041.035573,2180.243414 2059.222994,2187.405224 2053.225875,2202.428454 2066.885381,2207.802565 2073.109410,2192.193017 2083.909204,2196.452610 2090.900435,2178.907089 2048.275350,2162.122602 2041.035573,2180.243414"/>
    <poly id="186258768" type="building" color="255,230,230" fill="1" layer="-1.00" shape="2088.192956,2267.724244 2092.017407,2257.270236 2115.338619,2265.710565 2111.514151,2276.153511 2088.192956,2267.724244"/>
    <poly id="186258769" type="building" color="255,230,230" fill="1" layer="-1.00" shape="1994.072778,2283.065833 2046.901147,2290.518802 2049.215514,2274.326450 1996.387114,2266.873476 1994.072778,2283.065833"/>
    <poly id="186258770" type="building" color="255,230,230" fill="1" layer="-1.00" shape="1943.744113,2311.630007 1954.324550,2299.997945 1938.192814,2265.419175 1911.090227,2292.426348 1903.924403,2282.965979 1940.712161,2248.408271 1966.042305,2301.392423 1948.440568,2320.594843 1943.744113,2311.630007"/>
    <poly id="186258772" type="building" color="255,230,230" fill="1" layer="-1.00" shape="2037.651166,2262.348338 2058.026546,2270.249236 2049.890258,2291.002853 2067.915023,2297.987863 2076.202613,2276.869175 2079.755565,2278.237471 2086.984268,2259.829143 2088.381621,2260.369847 2084.936915,2258.957222 2092.951305,2234.886019 2084.209834,2231.642102 2079.703692,2229.964965 2073.843322,2227.525908 2065.232515,2250.591255 2045.020297,2243.563874 2037.651166,2262.348338"/>
    <poly id="186258774" type="building" color="255,230,230" fill="1" layer="-1.00" shape="2111.752496,2161.504625 2089.807131,2217.592411 2113.291464,2226.806730 2135.529319,2170.807188 2111.752496,2161.504625"/>
    <poly id="186258776" type="building" color="255,230,230" fill="1" layer="-1.00" shape="2081.059215,2295.930768 2116.448186,2309.923519 2123.515114,2292.267351 2088.126123,2278.274591 2081.059215,2295.930768"/>
    <poly id="186258778" type="building" color="255,230,230" fill="1" layer="-1.00" shape="2094.049085,2239.695753 2096.945765,2233.345424 2085.333051,2228.157561 2084.209730,2231.520453 2079.736037,2229.799052 2081.259763,2226.137226 2071.966826,2223.833797 2075.154898,2216.333082 2087.936614,2220.933819 2089.666669,2217.957477 2103.943589,2223.563321 2118.252876,2229.036437 2116.417115,2235.054093 2134.712803,2242.260097 2128.193319,2254.264646 2094.049085,2239.695753"/>
    <poly id="186258779" type="building" color="255,230,230" fill="1" layer="-1.00" shape="2118.779031,2287.582353 2146.087751,2299.104786 2153.351057,2295.924695 2148.407090,2288.707357 2157.695836,2286.100618 2152.459261,2278.607052 2160.588366,2274.840102 2157.105539,2266.769981 2164.942772,2263.589407 2160.290687,2255.796751 2171.030726,2253.476322 2164.050252,2245.409162 2139.646250,2237.058181 2118.779031,2287.582353"/>
    <poly id="186259462" type="tourism" color="207,245,201" fill="1" layer="-2.00" shape="1769.579963,2189.754477 1781.794191,2201.742975 1856.791734,2275.397809 1903.508909,2227.737665 1866.875665,2189.958342 1833.906663,2106.723411 1768.990240,2183.982185 1769.579963,2189.754477"/>
    <poly id="186259463" type="building" color="255,230,230" fill="1" layer="-1.00" shape="1730.755148,2197.595621 1749.169964,2179.553553 1757.341876,2187.785465 1751.780650,2193.242350 1781.216847,2222.910408 1787.005284,2217.232153 1794.353483,2224.635360 1780.396312,2238.316309 1746.072155,2203.720152 1741.387301,2208.302622 1730.755148,2197.595621"/>
    <poly id="186259464" type="building" color="255,230,230" fill="1" layer="-1.00" shape="1721.911082,2213.550343 1763.818502,2251.855758 1768.697677,2246.587466 1762.412114,2240.842201 1765.841597,2237.134478 1771.010945,2241.874336 1773.823769,2238.830686 1733.032572,2201.541720 1721.911082,2213.550343"/>
    <poly id="186259465" type="building" color="255,230,230" fill="1" layer="-1.00" shape="1924.227394,1814.068987 1932.315144,1761.830406 1952.935941,1764.986707 1944.848143,1817.214222 1924.227394,1814.068987"/>
    <poly id="186259466" type="building" color="255,230,230" fill="1" layer="-1.00" shape="1718.732313,2169.018473 1742.815754,2144.468812 1761.424505,2162.921302 1744.590291,2180.541755 1741.393842,2178.233181 1737.628208,2181.410364 1733.850247,2182.851296 1727.461846,2183.442937 1723.095156,2180.272773 1720.482451,2176.802502 1718.735054,2172.192406 1718.732313,2169.018473"/>
    <poly id="186259468" type="leisure" color="207,245,201" fill="1" layer="-2.00" shape="2181.818993,2487.210290 2191.736768,2473.035311 2197.165037,2476.779721 2202.378087,2469.321542 2196.288893,2465.124271 2202.778169,2455.840277 2232.909931,2476.627855 2211.300642,2507.544975 2181.818993,2487.210290"/>
    <poly id="186259822" type="building" color="255,230,230" fill="1" layer="-1.00" shape="2470.681456,2150.773651 2475.030939,2133.451622 2449.442233,2106.920354 2443.350755,2112.985782 2430.563487,2101.738421 2444.489625,2089.318569 2436.348588,2078.940980 2444.767030,2071.424876 2453.199239,2080.364554 2464.515442,2067.659361 2455.217177,2059.007938 2462.465170,2050.342682 2472.347944,2058.706085 2488.891052,2041.948943 2497.906085,2048.587877 2505.747268,2050.019004 2515.034692,2045.687188 2523.480114,2070.496541 2536.546989,2066.449116 2539.751064,2077.980983 2529.011165,2080.588796 2533.668939,2095.304443 2545.577613,2091.833056 2548.197420,2103.951537 2537.458489,2107.709483 2542.118659,2125.311527 2533.404220,2128.492721 2530.498052,2123.596006 2493.908204,2136.897324 2491.605807,2154.792708 2470.681456,2150.773651"/>
    <poly id="186259823" type="building" color="255,230,230" fill="1" layer="-1.00" shape="2451.086930,1988.875219 2452.791266,1942.127406 2459.473086,1942.696887 2460.046015,1928.551950 2481.248957,1928.821768 2482.123699,1938.928962 2480.392563,1953.649935 2481.567129,1959.709285 2480.400756,1963.459259 2476.634284,1965.773736 2470.246049,1966.641675 2468.809949,1984.536335 2451.086930,1988.875219"/>
    <poly id="186259824" type="building" color="255,230,230" fill="1" layer="-1.00" shape="2480.771514,2122.133470 2456.408665,2098.255331 2490.940347,2058.115489 2505.171670,2060.990011 2524.101675,2114.654607 2491.580750,2124.778604 2486.530708,2120.138040 2480.771514,2122.133470"/>
    <poly id="186259825" type="building" color="255,230,230" fill="1" layer="-1.00" shape="2467.857308,2036.713488 2488.891052,2041.948943 2493.711250,2017.703594 2520.041122,2023.985258 2515.034692,2045.687188 2537.986251,2052.303457 2540.014595,2043.355038 2529.552136,2041.052424 2532.345677,2027.735062 2544.356195,2029.494496 2546.675233,2018.522038 2475.408702,2002.346869 2472.029262,2014.260234 2484.809083,2016.560890 2481.873055,2027.799285 2471.334248,2024.855336 2467.857308,2036.713488"/>
    <poly id="186259862" type="tourism" color="207,245,201" fill="1" layer="-2.00" shape="2546.795083,2227.448555 2585.012605,2179.254808 2611.039975,2199.637035 2572.822436,2247.830745 2546.795083,2227.448555"/>
    <poly id="186259863" type="building" color="255,230,230" fill="1" layer="-1.00" shape="2509.949593,2219.715849 2527.672708,2215.664534 2543.624270,2190.823787 2533.743731,2185.059221 2540.990038,2174.381249 2550.005005,2181.009140 2567.117199,2158.478773 2574.973028,2164.543628 2571.470349,2145.491886 2590.051146,2144.038765 2592.097727,2157.020330 2599.364237,2157.589359 2608.949045,2159.317660 2615.340351,2162.198752 2622.892242,2167.390212 2628.127751,2173.733733 2633.368762,2186.712650 2645.282194,2189.014099 2645.868317,2203.733142 2629.312515,2205.184544 2637.743427,2212.686610 2619.753127,2234.056467 2627.890219,2239.822511 2619.192145,2249.639063 2611.337801,2245.321516 2597.121456,2260.340389 2591.313234,2255.435020 2588.987241,2258.035819 2590.451468,2273.904267 2573.896438,2276.229365 2571.278820,2266.709743 2565.755985,2266.426804 2558.791978,2264.983871 2550.938586,2261.816477 2543.679329,2256.923386 2538.737386,2252.017306 2534.379229,2245.960606 2532.046742,2240.764819 2531.458872,2237.016308 2531.165052,2235.280290 2512.878141,2238.469470 2509.949593,2219.715849"/>
    <poly id="186260306" type="building" color="255,230,230" fill="1" layer="-1.00" shape="2532.767756,1455.520115 2537.902276,1418.423973 2547.768582,1419.764956 2542.634058,1456.872155 2532.767756,1455.520115"/>
    <poly id="186260307" type="building" color="255,230,230" fill="1" layer="-1.00" shape="2545.976090,1595.018335 2552.080380,1565.142908 2573.037835,1569.372128 2566.944351,1599.247540 2545.976090,1595.018335"/>
    <poly id="186260308" type="building" color="255,230,230" fill="1" layer="-1.00" shape="2575.445343,1794.973638 2613.004644,1631.368827 2632.976857,1635.897504 2595.417442,1799.502286 2575.445343,1794.973638"/>
    <poly id="186260309" type="building" color="255,230,230" fill="1" layer="-1.00" shape="2588.839605,1363.717001 2597.362274,1324.903916 2610.002000,1327.647111 2601.479314,1366.460192 2588.839605,1363.717001"/>
    <poly id="186260310" type="building" color="255,230,230" fill="1" layer="-1.00" shape="2537.956276,1600.300153 2546.767581,1557.173795 2581.068494,1564.090311 2572.257136,1607.216658 2537.956276,1600.300153"/>
    <poly id="186260311" type="building" color="255,230,230" fill="1" layer="-1.00" shape="2577.981416,1419.784062 2585.872882,1377.255673 2617.574132,1383.057441 2609.682618,1425.585819 2577.981416,1419.784062"/>
    <poly id="186260312" type="building" color="255,230,230" fill="1" layer="-1.00" shape="2523.896568,1712.682323 2528.997149,1686.921670 2544.690725,1689.994059 2539.600949,1715.743640 2523.896568,1712.682323"/>
    <poly id="186260313" type="building" color="255,230,230" fill="1" layer="-1.00" shape="2587.289038,1413.417405 2592.280487,1386.495668 2608.266493,1389.424086 2603.275028,1416.345820 2587.289038,1413.417405"/>
    <poly id="186260314" type="landuse" color="194,194,130" fill="1" layer="-3.00" shape="2519.262093,1180.284086 2595.403962,1000.987681 2716.537291,1051.769784 2640.405597,1231.065834 2519.262093,1180.284086"/>
    <poly id="186260315" type="building" color="255,230,230" fill="1" layer="-1.00" shape="2517.724858,1453.741092 2522.837478,1416.379549 2531.999811,1417.610523 2526.887187,1454.983123 2517.724858,1453.741092"/>
    <poly id="186260316" type="building" color="255,230,230" fill="1" layer="-1.00" shape="2538.536258,1412.506883 2544.698351,1373.972219 2554.998071,1375.600378 2548.835964,1414.135040 2538.536258,1412.506883"/>
    <poly id="186260317" type="building" color="255,230,230" fill="1" layer="-1.00" shape="2535.098147,1653.142414 2540.318670,1628.343798 2557.864504,1632.000779 2552.633136,1656.799401 2535.098147,1653.142414"/>
    <poly id="186260318" type="building" color="255,230,230" fill="1" layer="-1.00" shape="2507.780325,1774.106367 2513.734539,1746.166376 2531.486112,1749.900581 2525.531880,1777.840568 2507.780325,1774.106367"/>
    <poly id="186260319" type="building" color="255,230,230" fill="1" layer="-1.00" shape="2523.612160,1410.373870 2529.893083,1371.518392 2539.304719,1373.014577 2533.012953,1411.870061 2523.612160,1410.373870"/>
    <poly id="186260320" type="building" color="255,230,230" fill="1" layer="-1.00" shape="2562.850020,1480.875467 2571.585219,1437.284707 2605.409610,1443.969413 2596.674369,1487.571221 2562.850020,1480.875467"/>
    <poly id="186260321" type="building" color="255,230,230" fill="1" layer="-1.00" shape="2515.011021,1718.606293 2523.033925,1678.101561 2553.576287,1684.070099 2545.564168,1724.574813 2515.011021,1718.606293"/>
    <poly id="186260322" type="building" color="255,230,230" fill="1" layer="-1.00" shape="2526.028460,1659.033356 2534.398606,1619.346706 2566.934207,1626.109848 2558.564025,1665.807546 2526.028460,1659.033356"/>
    <poly id="186260323" type="building" color="255,230,230" fill="1" layer="-1.00" shape="2499.121940,1779.709443 2508.096363,1737.556120 2540.144513,1744.297516 2531.170042,1786.450828 2499.121940,1779.709443"/>
    <poly id="186260324" type="building" color="255,230,230" fill="1" layer="-1.00" shape="2587.481345,1566.661727 2598.730129,1511.556472 2653.804425,1522.647196 2642.555542,1577.763485 2587.481345,1566.661727"/>
    <poly id="186260325" type="building" color="255,230,230" fill="1" layer="-1.00" shape="2573.077728,1474.087798 2578.415907,1447.442244 2595.181884,1450.757070 2589.843689,1477.402621 2573.077728,1474.087798"/>
    <poly id="186262681" type="building" color="255,230,230" fill="1" layer="-1.00" shape="2708.621483,1209.389056 2726.944134,1117.440534 2786.297146,1129.114132 2767.974301,1221.062612 2708.621483,1209.389056"/>
    <poly id="186262681#1" type="tourism" color="207,245,201" fill="1" layer="-2.00" shape="2708.621483,1209.389056 2726.944134,1117.440534 2786.297146,1129.114132 2767.974301,1221.062612 2708.621483,1209.389056"/>
    <poly id="186262683" type="building" color="255,230,230" fill="1" layer="-1.00" shape="2625.178999,929.555078 2612.092088,897.085680 2646.593302,883.354991 2659.680177,915.824404 2625.178999,929.555078"/>
    <poly id="186262684" type="building" color="255,230,230" fill="1" layer="-1.00" shape="2701.443083,961.950082 2688.962118,928.761313 2721.742780,916.591460 2734.223700,949.769184 2701.443083,961.950082"/>
    <poly id="186262685" type="leisure" color="207,245,201" fill="1" layer="-2.00" shape="2551.098917,1153.505875 2587.989311,1057.118215 2596.112144,1045.278350 2603.655490,1039.797887 2611.502522,1034.881183 2619.341123,1032.850885 2628.057368,1031.405988 2636.763977,1031.398770 2648.678157,1033.987761 2659.132547,1039.165769 2667.563336,1046.092777 2673.386209,1055.322214 2678.627170,1068.013599 2679.503524,1080.133527 2678.929741,1093.415849 2640.664359,1177.429510 2633.405964,1186.968377 2624.986703,1193.898287 2614.540495,1198.518552 2603.507614,1200.839038 2592.461030,1199.698076 2584.912219,1198.543152 2575.324677,1193.939520 2567.772746,1189.035606 2560.207592,1181.256367 2556.715595,1175.198944 2553.514297,1167.117484 2551.765297,1160.483544 2551.098917,1153.505875"/>
    <poly id="186262692" type="building" color="255,230,230" fill="1" layer="-1.00" shape="2723.893338,1199.777238 2728.700946,1172.944157 2759.351666,1178.359896 2754.544037,1205.204030 2723.893338,1199.777238"/>
    <poly id="186262692#1" type="tourism" color="207,245,201" fill="1" layer="-2.00" shape="2723.893338,1199.777238 2728.700946,1172.944157 2759.351666,1178.359896 2754.544037,1205.204030 2723.893338,1199.777238"/>
    <poly id="186262699" type="building" color="255,230,230" fill="1" layer="-1.00" shape="2766.321049,1304.260765 2761.814742,1302.517158 2767.790487,1287.107058 2765.483288,1286.356948 2766.595459,1282.452207 2770.212541,1282.681466 2772.273329,1273.511864 2769.663180,1273.082714 2769.908694,1268.769505 2773.027096,1268.335635 2775.290358,1255.184630 2780.725053,1253.388597 2779.332469,1232.388720 2787.031484,1231.862607 2789.377790,1253.801714 2785.154534,1253.882604 2782.700424,1285.137334 2777.349589,1283.560305 2776.734349,1286.004849 2779.452996,1286.688267 2769.639417,1309.953411 2774.113399,1311.896107 2759.067626,1332.975886 2753.748009,1329.850578 2755.597433,1327.017951 2751.924625,1324.864476 2766.321049,1304.260765"/>
    <poly id="186262699#1" type="tourism" color="207,245,201" fill="1" layer="-2.00" shape="2766.321049,1304.260765 2761.814742,1302.517158 2767.790487,1287.107058 2765.483288,1286.356948 2766.595459,1282.452207 2770.212541,1282.681466 2772.273329,1273.511864 2769.663180,1273.082714 2769.908694,1268.769505 2773.027096,1268.335635 2775.290358,1255.184630 2780.725053,1253.388597 2779.332469,1232.388720 2787.031484,1231.862607 2789.377790,1253.801714 2785.154534,1253.882604 2782.700424,1285.137334 2777.349589,1283.560305 2776.734349,1286.004849 2779.452996,1286.688267 2769.639417,1309.953411 2774.113399,1311.896107 2759.067626,1332.975886 2753.748009,1329.850578 2755.597433,1327.017951 2751.924625,1324.864476 2766.321049,1304.260765"/>
    <poly id="186262700" type="leisure" color="207,245,201" fill="1" layer="-2.00" shape="2563.162967,1154.059848 2598.476430,1062.583707 2604.684818,1053.521240 2610.280098,1049.457947 2616.222187,1045.726137 2621.797996,1044.294902 2629.030842,1043.083474 2635.495821,1043.078115 2644.734721,1045.083195 2652.686557,1049.024667 2658.614118,1053.896773 2662.886398,1060.672397 2667.031436,1070.721588 2667.732435,1080.309152 2667.286180,1090.660737 2630.490886,1171.421852 2624.855091,1178.836050 2618.730020,1183.872971 2610.892666,1187.351998 2602.880553,1189.028556 2593.967471,1188.107001 2588.443956,1187.271105 2581.120585,1183.749372 2575.302239,1179.972032 2569.687970,1174.181787 2567.345518,1170.125085 2564.708530,1163.480824 2563.176776,1157.642950 2563.162967,1154.059848"/>
    <poly id="186262701" type="landuse" color="194,194,130" fill="1" layer="-3.00" shape="2475.958227,1156.211601 2437.551195,1082.933634 2469.201740,1066.462465 2483.112778,1035.275555 2551.391019,1062.058832 2514.582142,1152.142851 2475.958227,1156.211601"/>