<?xml version="1.0" encoding="UTF-8"?>
<!-- generated on 2020-12-24 22:45:29.361720 by randomTrips.py v1_7_0+0000-714814baed
  options: -n osm.net.xml -r truck_routes.rou.xml -o truck_trips.xml -e 3600 -p 15 <doubleminus>vehicle-class truck <doubleminus>trip-attributes=color="179,223,183"
-->
<routes xmlns:xsi="http://www.w3.org/2001/XMLSchema-instance" xsi:noNamespaceSchemaLocation="http://sumo.dlr.de/xsd/routes_file.xsd">
    <vType id="truck" vClass="truck" color="179,223,183"/>
    <trip id="0" depart="0.00" from="374530997#1" to="-133755118#4" type="truck"/>
    <trip id="1" depart="15.00" from="-804207582" to="-374529123#1" type="truck"/>
    <trip id="2" depart="30.00" from="374533525#5" to="374532416#5" type="truck"/>
    <trip id="3" depart="45.00" from="gneE53" to="-133755126#8" type="truck"/>
    <trip id="4" depart="60.00" from="135530186#2" to="-133755126#0" type="truck"/>
    <trip id="5" depart="75.00" from="-374529123#0" to="171870085#1" type="truck"/>
    <trip id="6" depart="90.00" from="-133755118#4" to="-186250480#0" type="truck"/>
    <trip id="7" depart="105.00" from="374532416#10" to="374529118#2" type="truck"/>
    <trip id="8" depart="120.00" from="-374529123#1" to="374529120#11" type="truck"/>
    <trip id="9" depart="135.00" from="804217356#11" to="-133755118#0" type="truck"/>
    <trip id="10" depart="150.00" from="804217356#1" to="374533524#2" type="truck"/>
    <trip id="11" depart="165.00" from="133755118#5" to="-171867130#2" type="truck"/>
    <trip id="12" depart="180.00" from="gneE72" to="133755118#4" type="truck"/>
    <trip id="13" depart="195.00" from="-133755126#9" to="-135530186#0" type="truck"/>
    <trip id="14" depart="210.00" from="gneE1" to="374529120#6" type="truck"/>
    <trip id="15" depart="225.00" from="804217356#1" to="374533525#4" type="truck"/>
    <trip id="16" depart="240.00" from="374529115" to="gneE75" type="truck"/>
    <trip id="17" depart="255.00" from="133755126#2" to="374529118#3" type="truck"/>
    <trip id="18" depart="270.00" from="804217356#8" to="374529120#9" type="truck"/>
    <trip id="19" depart="285.00" from="gneE45" to="374529120#1" type="truck"/>
    <trip id="20" depart="300.00" from="374533524#3" to="-133755126#13" type="truck"/>
    <trip id="21" depart="315.00" from="-588939865" to="-gneE2" type="truck"/>
    <trip id="22" depart="330.00" from="-133755126#6" to="-706318004#0" type="truck"/>
    <trip id="23" depart="345.00" from="-135530186#1" to="-gneE0" type="truck"/>
    <trip id="24" depart="360.00" from="374529123#1" to="133755126#13" type="truck"/>
    <trip id="25" depart="375.00" from="133755126#14" to="-186250480#2" type="truck"/>
    <trip id="26" depart="390.00" from="-800669863" to="gneE63" type="truck"/>
    <trip id="27" depart="405.00" from="374532416#10" to="374529120#7" type="truck"/>
    <trip id="28" depart="420.00" from="-171867136#3" to="374533525#4" type="truck"/>
    <trip id="29" depart="435.00" from="-171867136#1" to="133755126#2" type="truck"/>
    <trip id="30" depart="450.00" from="gneE82" to="374530997#1" type="truck"/>
    <trip id="31" depart="465.00" from="374529118#4" to="374532416#7" type="truck"/>
    <trip id="32" depart="480.00" from="gneE0" to="800610496" type="truck"/>
    <trip id="33" depart="495.00" from="-588939865" to="-133755126#1" type="truck"/>
    <trip id="34" depart="510.00" from="122612356#1" to="-800669863" type="truck"/>
    <trip id="35" depart="525.00" from="-186250480#3" to="gneE67" type="truck"/>
    <trip id="36" depart="540.00" from="gneE50" to="122612356#1" type="truck"/>
    <trip id="37" depart="555.00" from="374532416#11" to="133755126#6" type="truck"/>
    <trip id="38" depart="570.00" from="gneE58" to="158486424#9" type="truck"/>
    <trip id="39" depart="585.00" from="-800669863" to="-800610494" type="truck"/>
    <trip id="40" depart="600.00" from="374529118#5" to="-800610496" type="truck"/>
    <trip id="41" depart="615.00" from="374529120#10" to="gneE55" type="truck"/>
    <trip id="42" depart="630.00" from="133755126#7" to="-374529123#1" type="truck"/>
    <trip id="43" depart="645.00" from="gneE85" to="171870086#0" type="truck"/>
    <trip id="44" depart="660.00" from="-133755126#9" to="-133755126#13" type="truck"/>
    <trip id="45" depart="675.00" from="-158486424#0" to="374529122#1" type="truck"/>
    <trip id="46" depart="690.00" from="804207589#2" to="135530186#2" type="truck"/>
    <trip id="47" depart="705.00" from="-133755126#3" to="133755126#3" type="truck"/>
    <trip id="48" depart="720.00" from="gneE85" to="186250480#3" type="truck"/>
    <trip id="49" depart="735.00" from="gneE75" to="gneE3" type="truck"/>
    <trip id="50" depart="750.00" from="-133755118#1" to="374533525#0" type="truck"/>
    <trip id="51" depart="765.00" from="374532416#6" to="374529115" type="truck"/>
    <trip id="52" depart="780.00" from="-800669863" to="374530997#1" type="truck"/>
    <trip id="53" depart="795.00" from="-158486424#0" to="158486424#4" type="truck"/>
    <trip id="54" depart="810.00" from="158486424#8" to="gneE71" type="truck"/>
    <trip id="55" depart="825.00" from="gneE50" to="-800610496" type="truck"/>
    <trip id="56" depart="840.00" from="171870085#0" to="-171870082" type="truck"/>
    <trip id="57" depart="855.00" from="gneE58" to="gneE46" type="truck"/>
    <trip id="58" depart="870.00" from="-gneE3" to="374530997#1" type="truck"/>
    <trip id="59" depart="885.00" from="374529120#7" to="-171867130#2" type="truck"/>
    <trip id="60" depart="900.00" from="800610494" to="374529115" type="truck"/>
    <trip id="61" depart="915.00" from="800669863" to="186250480#3" type="truck"/>
    <trip id="62" depart="930.00" from="-122612356#1" to="133755118#1" type="truck"/>
    <trip id="63" depart="945.00" from="-133755118#3" to="gneE62" type="truck"/>
    <trip id="64" depart="960.00" from="gneE50" to="804217356#9" type="truck"/>
    <trip id="65" depart="975.00" from="-gneE77" to="-133755126#15" type="truck"/>
    <trip id="66" depart="990.00" from="gneE50" to="gneE70" type="truck"/>
    <trip id="67" depart="1005.00" from="-133755126#8" to="171867136#2" type="truck"/>
    <trip id="68" depart="1020.00" from="-133755126#4" to="800610494" type="truck"/>
    <trip id="69" depart="1035.00" from="800610495#0" to="-158486424#6" type="truck"/>
    <trip id="70" depart="1050.00" from="171867130#3" to="374529118#3" type="truck"/>
    <trip id="71" depart="1065.00" from="-800669863" to="gneE49" type="truck"/>
    <trip id="72" depart="1080.00" from="135530186#2" to="-186250480#3" type="truck"/>
    <trip id="73" depart="1095.00" from="374529115" to="374533525#4" type="truck"/>
    <trip id="74" depart="1110.00" from="-186250480#1" to="-gneE82" type="truck"/>
    <trip id="75" depart="1125.00" from="gneE83" to="374532416#10" type="truck"/>
    <trip id="76" depart="1140.00" from="158486424#5" to="186250480#0" type="truck"/>
    <trip id="77" depart="1155.00" from="-158486424#5" to="-374530997#1" type="truck"/>
    <trip id="78" depart="1170.00" from="133755118#4" to="374529120#11" type="truck"/>
    <trip id="79" depart="1185.00" from="-588939865" to="-374529123#1" type="truck"/>
    <trip id="80" depart="1200.00" from="-133755126#4" to="374529123#0" type="truck"/>
    <trip id="81" depart="1215.00" from="-588939865" to="gneE56" type="truck"/>
    <trip id="82" depart="1230.00" from="gneE3" to="-133755126#4" type="truck"/>
    <trip id="83" depart="1245.00" from="-706318004#1" to="374532416#3" type="truck"/>
    <trip id="84" depart="1260.00" from="-186250480#3" to="-158486424#7" type="truck"/>
    <trip id="85" depart="1275.00" from="gneE63" to="374529118#7" type="truck"/>
    <trip id="86" depart="1290.00" from="171867130#2" to="804207582" type="truck"/>
    <trip id="87" depart="1305.00" from="804217356#1" to="-171870085#1" type="truck"/>
    <trip id="88" depart="1320.00" from="-135530186#0" to="158486424#3" type="truck"/>
    <trip id="89" depart="1335.00" from="135530186#2" to="171867130#1" type="truck"/>
    <trip id="90" depart="1350.00" from="374533525#4" to="374532416#4" type="truck"/>
    <trip id="91" depart="1365.00" from="gneE80" to="-135530186#1" type="truck"/>
    <trip id="92" depart="1380.00" from="133755126#8" to="133755118#5" type="truck"/>
    <trip id="93" depart="1395.00" from="gneE45" to="-800610494" type="truck"/>
    <trip id="94" depart="1410.00" from="-171870085#1" to="158486424#7" type="truck"/>
    <trip id="95" depart="1425.00" from="135530186#2" to="-gneE0" type="truck"/>
    <trip id="96" depart="1440.00" from="-800610494" to="gneE60" type="truck"/>
    <trip id="97" depart="1455.00" from="158486424#6" to="gneE3" type="truck"/>
    <trip id="98" depart="1470.00" from="374529118#3" to="-133755126#14" type="truck"/>
    <trip id="99" depart="1485.00" from="gneE85" to="817117729#1" type="truck"/>
    <trip id="100" depart="1500.00" from="gneE75" to="gneE61" type="truck"/>
    <trip id="101" depart="1515.00" from="gneE2" to="-171867136#2" type="truck"/>
    <trip id="102" depart="1530.00" from="171867136#2" to="-186250480#3" type="truck"/>
    <trip id="103" depart="1545.00" from="133755126#7" to="-133755126#2" type="truck"/>
    <trip id="104" depart="1560.00" from="133755126#2" to="gneE80" type="truck"/>
    <trip id="105" depart="1575.00" from="-800669863" to="804207582" type="truck"/>
    <trip id="106" depart="1590.00" from="158486424#8" to="135530186#2" type="truck"/>
    <trip id="107" depart="1605.00" from="gneE72" to="gneE83" type="truck"/>
    <trip id="108" depart="1620.00" from="374529118#4" to="374533524#6" type="truck"/>
    <trip id="109" depart="1635.00" from="-171867130#2" to="-gneE3" type="truck"/>
    <trip id="110" depart="1650.00" from="gneE74" to="374529120#1" type="truck"/>
    <trip id="111" depart="1665.00" from="374529118#1" to="706318004#0" type="truck"/>
    <trip id="112" depart="1680.00" from="-133755126#15" to="374529120#10" type="truck"/>
    <trip id="113" depart="1695.00" from="171870085#0" to="gneE27" type="truck"/>
    <trip id="114" depart="1710.00" from="-171867130#3" to="gneE73" type="truck"/>
    <trip id="115" depart="1725.00" from="-133755126#6" to="-171870085#0" type="truck"/>
    <trip id="116" depart="1740.00" from="374529120#3" to="374532416#5" type="truck"/>
    <trip id="117" depart="1755.00" from="-706318004#0" to="-158486424#4" type="truck"/>
    <trip id="118" depart="1770.00" from="gneE53" to="-800610494" type="truck"/>
    <trip id="119" depart="1785.00" from="374529120#3" to="374529120#9" type="truck"/>
    <trip id="120" depart="1800.00" from="135530186#1" to="374529120#10" type="truck"/>
    <trip id="121" depart="1815.00" from="186250480#2" to="gneE63" type="truck"/>
    <trip id="122" depart="1830.00" from="-186250480#1" to="374533524#6" type="truck"/>
    <trip id="123" depart="1845.00" from="-706318004#1" to="133755126#6" type="truck"/>
    <trip id="124" depart="1860.00" from="374532416#4" to="-gneE76" type="truck"/>
    <trip id="125" depart="1875.00" from="122612356#1" to="706318004#1" type="truck"/>
    <trip id="126" depart="1890.00" from="-133755126#5" to="158486424#9" type="truck"/>
    <trip id="127" depart="1905.00" from="gneE85" to="gneE85" type="truck"/>
    <trip id="128" depart="1920.00" from="-133755126#5" to="-186250480#3" type="truck"/>
    <trip id="129" depart="1935.00" from="-800669863" to="gneE63" type="truck"/>
    <trip id="130" depart="1950.00" from="gneE51" to="gneE50" type="truck"/>
    <trip id="131" depart="1965.00" from="133755126#14" to="-171867130#3" type="truck"/>
    <trip id="132" depart="1980.00" from="804217356#9" to="374533524#3" type="truck"/>
    <trip id="133" depart="1995.00" from="374529120#8" to="gneE82" type="truck"/>
    <trip id="134" depart="2010.00" from="374532416#11" to="-133755118#0" type="truck"/>
    <trip id="135" depart="2025.00" from="804217356#4" to="-gneE76" type="truck"/>
    <trip id="136" depart="2040.00" from="374532416#2" to="gneE64" type="truck"/>
    <trip id="137" depart="2055.00" from="-158486424#8" to="-158486424#3" type="truck"/>
    <trip id="138" depart="2070.00" from="-135530186#2" to="374529118#3" type="truck"/>
    <trip id="139" depart="2085.00" from="-804207582" to="374529120#6" type="truck"/>
    <trip id="140" depart="2100.00" from="374533524#6" to="-186250480#1" type="truck"/>
    <trip id="141" depart="2115.00" from="374529123#1" to="-800669863" type="truck"/>
    <trip id="142" depart="2130.00" from="171867136#3" to="gneE56" type="truck"/>
    <trip id="143" depart="2145.00" from="gneE1" to="-133755126#9" type="truck"/>
    <trip id="144" depart="2160.00" from="135530186#2" to="-804207582" type="truck"/>
    <trip id="145" depart="2175.00" from="-122612356#1" to="800610495#1" type="truck"/>
    <trip id="146" depart="2190.00" from="374529123#1" to="-800610496" type="truck"/>
    <trip id="147" depart="2205.00" from="578203893" to="374529118#3" type="truck"/>
    <trip id="148" depart="2220.00" from="158486424#0" to="-133755118#1" type="truck"/>
    <trip id="149" depart="2235.00" from="-133755126#5" to="gneE51" type="truck"/>
    <trip id="150" depart="2250.00" from="gneE56" to="374529118#2" type="truck"/>
    <trip id="151" depart="2265.00" from="804217356#9" to="374529120#10" type="truck"/>
    <trip id="152" depart="2280.00" from="-171867130#1" to="-158486424#6" type="truck"/>
    <trip id="153" depart="2295.00" from="-gneE82" to="gneE55" type="truck"/>
    <trip id="154" depart="2310.00" from="804207591#0" to="gneE3" type="truck"/>
    <trip id="155" depart="2325.00" from="gneE55" to="-186250480#3" type="truck"/>
    <trip id="156" depart="2340.00" from="-800610494" to="-135530186#2" type="truck"/>
    <trip id="157" depart="2355.00" from="800669863" to="gneE52" type="truck"/>
    <trip id="158" depart="2370.00" from="133755126#9" to="374529122#0" type="truck"/>
    <trip id="159" depart="2385.00" from="-171867130#2" to="gneE62" type="truck"/>
    <trip id="160" depart="2400.00" from="gneE45" to="gneE76" type="truck"/>
    <trip id="161" depart="2415.00" from="804217356#11" to="gneE51" type="truck"/>
    <trip id="162" depart="2430.00" from="-133755118#4" to="374533525#5" type="truck"/>
    <trip id="163" depart="2445.00" from="133755118#3" to="gneE62" type="truck"/>
    <trip id="164" depart="2460.00" from="804207591#5" to="gneE45" type="truck"/>
    <trip id="165" depart="2475.00" from="804217356#11" to="-800669863" type="truck"/>
    <trip id="166" depart="2490.00" from="804207589#1" to="-158486424#0" type="truck"/>
    <trip id="167" depart="2505.00" from="gneE49" to="gneE3" type="truck"/>
    <trip id="168" depart="2520.00" from="-374529123#1" to="804217356#3" type="truck"/>
    <trip id="169" depart="2535.00" from="171867130#0" to="-gneE77" type="truck"/>
    <trip id="170" depart="2550.00" from="804207591#0" to="-374530997#1" type="truck"/>
    <trip id="171" depart="2565.00" from="-133755118#4" to="-171870086#0" type="truck"/>
    <trip id="172" depart="2580.00" from="133755118#2" to="gneE45" type="truck"/>
    <trip id="173" depart="2595.00" from="gneE74" to="-gneE0" type="truck"/>
    <trip id="174" depart="2610.00" from="374530997#1" to="133755126#7" type="truck"/>
    <trip id="175" depart="2625.00" from="gneE77" to="374529115" type="truck"/>
    <trip id="176" depart="2640.00" from="gneE64" to="-158486424#3" type="truck"/>
    <trip id="177" depart="2655.00" from="gneE75" to="-171867136#4" type="truck"/>
    <trip id="178" depart="2670.00" from="gneE73" to="-800669863" type="truck"/>
    <trip id="179" depart="2685.00" from="-158486424#0" to="158486424#4" type="truck"/>
    <trip id="180" depart="2700.00" from="374533525#4" to="122612356#1" type="truck"/>
    <trip id="181" depart="2715.00" from="374529120#6" to="171870086#0" type="truck"/>
    <trip id="182" depart="2730.00" from="133755126#4" to="374529120#1" type="truck"/>
    <trip id="183" depart="2745.00" from="-800610495#1" to="374533524#4" type="truck"/>
    <trip id="184" depart="2760.00" from="-122612356#1" to="gneE61" type="truck"/>
    <trip id="185" depart="2775.00" from="374529115" to="374533525#0" type="truck"/>
    <trip id="186" depart="2790.00" from="578203893" to="374532416#4" type="truck"/>
    <trip id="187" depart="2805.00" from="133755126#13" to="-133755126#4" type="truck"/>
    <trip id="188" depart="2820.00" from="374532416#2" to="133755118#2" type="truck"/>
    <trip id="189" depart="2835.00" from="122612356#1" to="gneE1" type="truck"/>
    <trip id="190" depart="2850.00" from="374533525#0" to="-gneE76" type="truck"/>
    <trip id="191" depart="2865.00" from="-gneE82" to="133755126#9" type="truck"/>
    <trip id="192" depart="2880.00" from="133755126#8" to="-gneE3" type="truck"/>
    <trip id="193" depart="2895.00" from="-158486424#6" to="135530186#2" type="truck"/>
    <trip id="194" depart="2910.00" from="gneE64" to="374532416#5" type="truck"/>
    <trip id="195" depart="2925.00" from="gneE56" to="374529120#8" type="truck"/>
    <trip id="196" depart="2940.00" from="-gneE76" to="374529118#2" type="truck"/>
    <trip id="197" depart="2955.00" from="-122612356#1" to="-gneE2" type="truck"/>
    <trip id="198" depart="2970.00" from="158486424#3" to="374529120#1" type="truck"/>
    <trip id="199" depart="2985.00" from="374532416#11" to="171867130#1" type="truck"/>
    <trip id="200" depart="3000.00" from="158486424#6" to="-186250480#3" type="truck"/>
    <trip id="201" depart="3015.00" from="171867130#2" to="gneE55" type="truck"/>
    <trip id="202" depart="3030.00" from="804207591#0" to="-171867136#3" type="truck"/>
    <trip id="203" depart="3045.00" from="-133755126#7" to="186250480#0" type="truck"/>
    <trip id="204" depart="3060.00" from="374529123#0" to="133755118#4" type="truck"/>
    <trip id="205" depart="3075.00" from="804217356#4" to="706318004#1" type="truck"/>
    <trip id="206" depart="3090.00" from="374532416#4" to="-374530997#1" type="truck"/>
    <trip id="207" depart="3105.00" from="-186250480#0" to="-133755118#4" type="truck"/>
    <trip id="208" depart="3120.00" from="-706318005" to="171867130#3" type="truck"/>
    <trip id="209" depart="3135.00" from="gneE2" to="-133755126#5" type="truck"/>
    <trip id="210" depart="3150.00" from="135530186#0" to="374529123#0" type="truck"/>
    <trip id="211" depart="3165.00" from="-171870086#0" to="374533524#1" type="truck"/>
    <trip id="212" depart="3180.00" from="171867136#4" to="-706318005" type="truck"/>
    <trip id="213" depart="3195.00" from="374532416#11" to="-133755118#0" type="truck"/>
    <trip id="214" depart="3210.00" from="706318004#1" to="800610495#1" type="truck"/>
    <trip id="215" depart="3225.00" from="-135530186#2" to="158486424#0" type="truck"/>
    <trip id="216" depart="3240.00" from="-171867136#4" to="gneE72" type="truck"/>
    <trip id="217" depart="3255.00" from="186250480#1" to="-133755126#14" type="truck"/>
    <trip id="218" depart="3270.00" from="-800610494" to="gneE2" type="truck"/>
    <trip id="219" depart="3285.00" from="158486424#9" to="804207591#5" type="truck"/>
    <trip id="220" depart="3300.00" from="374532416#3" to="gneE82" type="truck"/>
    <trip id="221" depart="3315.00" from="374529120#3" to="gneE70" type="truck"/>
    <trip id="222" depart="3330.00" from="gneE53" to="374529120#8" type="truck"/>
    <trip id="223" depart="3345.00" from="374533525#0" to="171870085#1" type="truck"/>
    <trip id="224" depart="3360.00" from="804217356#9" to="374529118#2" type="truck"/>
    <trip id="225" depart="3375.00" from="gneE54" to="578203893" type="truck"/>
    <trip id="226" depart="3390.00" from="171867130#3" to="-800610496" type="truck"/>
    <trip id="227" depart="3405.00" from="-800610494" to="374529123#1" type="truck"/>
    <trip id="228" depart="3420.00" from="800610495#0" to="186250480#1" type="truck"/>
    <trip id="229" depart="3435.00" from="374529122#1" to="-804207582" type="truck"/>
    <trip id="230" depart="3450.00" from="-133755126#6" to="-gneE2" type="truck"/>
    <trip id="231" depart="3465.00" from="-804207576" to="133755118#0" type="truck"/>
    <trip id="232" depart="3480.00" from="374529115" to="-158486424#8" type="truck"/>
    <trip id="233" depart="3495.00" from="-588939865" to="374533524#1" type="truck"/>
    <trip id="234" depart="3510.00" from="374533524#4" to="-133755126#3" type="truck"/>
    <trip id="235" depart="3525.00" from="133755126#9" to="374529118#1" type="truck"/>
    <trip id="236" depart="3540.00" from="135530186#1" to="-186250480#2" type="truck"/>
    <trip id="237" depart="3555.00" from="135530186#2" to="gneE56" type="truck"/>
    <trip id="238" depart="3570.00" from="374529120#10" to="374533524#1" type="truck"/>
    <trip id="239" depart="3585.00" from="gneE27" to="800610495#0" type="truck"/>
</routes>
