<?xml version="1.0" encoding="UTF-8"?>

<!-- generated on Sun Jan 24 22:00:48 2021 by Eclipse SUMO polyconvert Version 1.7.0
<configuration xmlns:xsi="http://www.w3.org/2001/XMLSchema-instance" xsi:noNamespaceSchemaLocation="http://sumo.dlr.de/xsd/polyconvertConfiguration.xsd">

    <input>
        <net-file value="osm.net.xml"/>
        <osm-files value="osm_bbox.osm.xml"/>
        <osm.keep-full-type value="true"/>
        <type-file value="/opt/sumo-1.7.0/data/typemap/osmPolyconvert.typ.xml"/>
    </input>

    <output>
        <output-file value="osm.poly.xml"/>
    </output>

    <processing>
        <poi-layer-offset value="5"/>
    </processing>

    <report>
        <verbose value="true"/>
    </report>

</configuration>
-->

<additional xmlns:xsi="http://www.w3.org/2001/XMLSchema-instance" xsi:noNamespaceSchemaLocation="http://sumo.dlr.de/xsd/additional_file.xsd">
    <location netOffset="-391605.20,-5819108.12" convBoundary="-1900.45,-0.00,2938.93,2772.08" origBoundary="13.374251,52.511490,13.445870,52.536648" projParameter="+proj=utm +zone=33 +ellps=WGS84 +datum=WGS84 +units=m +no_defs"/>

    <poly id="125736711" type="building.viaduct" color="255,230,230" fill="1" layer="-1.00" shape="103.218605,1310.171048 145.608948,1326.893306 161.574077,1332.170978 179.580328,1337.058640 197.677197,1340.520032 208.882129,1342.319950 219.525261,1343.575924 230.851266,1344.405116 240.734540,1344.754330 248.742137,1344.688756 256.116609,1344.537027 265.703653,1344.380964 278.400449,1343.355074 289.398698,1341.943866 298.551207,1340.551171 310.007655,1338.373220 321.066377,1335.703333 314.685461,1318.752197 295.190901,1322.999258 277.582277,1325.357580 264.320886,1326.329171 253.557067,1326.678137 242.847673,1326.725479 222.207780,1325.823801 202.071283,1323.130672 191.506612,1321.127452 169.707832,1315.700415 162.389893,1313.191528 153.211929,1310.056109 137.446598,1303.995113 112.889288,1292.920850 103.218605,1310.171048"/>
    <poly id="159958500" type="building.commercial" color="255,230,230" fill="1" layer="-1.00" shape="544.754370,1032.964834 578.083527,991.403982 580.041421,992.774079 581.657663,990.958091 600.612091,1007.744061 625.323864,1026.139302 623.409974,1028.618352 589.417880,1072.752825 575.430182,1060.497745 543.353276,1038.692999 546.380309,1034.364483 544.754370,1032.964834"/>
    <poly id="161907951" type="man_made.bridge" color="255,230,230" fill="1" layer="-1.00" shape="493.791260,1206.987475 485.259429,1214.074559 473.141706,1224.144977 468.096040,1228.339992 471.424839,1230.937246 476.058637,1234.540607 480.537618,1238.203022 483.741102,1240.658388 486.566298,1243.812000 492.505265,1239.497172 506.674181,1229.181315 515.358848,1222.869831 512.883634,1221.121693 507.993524,1217.590710 503.916438,1214.609325 496.551012,1209.018651 493.791260,1206.987475"/>
    <poly id="16603261" type="landuse.grass" color="194,194,130" fill="1" layer="-3.00" shape="341.945587,1070.595426 342.378893,1070.852927 343.000199,1071.017261 343.643981,1070.969674 344.188854,1070.746228 344.642341,1070.380141 360.596386,1049.898395 360.963310,1049.300539 361.117709,1048.607224 361.093100,1048.107026 360.946616,1047.620644 360.692563,1047.181146 360.269144,1046.756511 359.746658,1046.456465 359.234636,1046.323101 316.483021,1043.750066 315.703793,1043.811773 314.970180,1044.095025 314.422693,1044.507700 313.993487,1045.051295 313.690819,1045.792395 313.613264,1046.584165 313.750848,1047.282165 314.056569,1047.909690 314.523153,1048.444644 341.945587,1070.595426"/>
    <poly id="16872940" type="leisure.park" color="207,245,201" fill="1" layer="-2.00" shape="298.553724,777.284279 163.817174,934.588269 147.889176,933.504828 91.502512,892.700251 44.383262,854.473163 29.452802,844.799780 19.484872,835.150161 16.836813,831.436502 16.122107,823.985700 26.914367,804.930137 26.540642,803.992560 44.911479,770.648449 43.571708,769.921411 45.502757,766.384628 46.835743,767.111817 53.333377,755.206219 105.124384,668.812430 111.682343,659.008701 205.398371,719.107543 298.553724,777.284279"/>
    <poly id="170860163" type="building.yes" color="255,230,230" fill="1" layer="-1.00" shape="211.606483,1117.226562 213.528186,1115.726397 214.170408,1113.764883 218.094059,1110.095130 221.881460,1112.548560 232.350557,1124.034672 232.054119,1126.901009 226.302335,1131.390061 223.613536,1131.349302 213.166506,1119.940614 211.606483,1117.226562"/>
    <poly id="170860164" type="building.yes" color="255,230,230" fill="1" layer="-1.00" shape="194.524657,1133.015645 196.561436,1131.501803 196.839508,1129.648480 201.649230,1125.224715 203.697195,1126.982140 211.140443,1135.152270 212.075996,1134.486203 213.103660,1135.531750 212.350887,1136.483096 214.361331,1138.386012 214.148283,1141.339529 208.916902,1146.340103 206.447078,1146.071965 204.454188,1143.734689 203.628661,1144.465092 202.577695,1143.286531 203.036379,1142.541977 195.330259,1134.455560 194.524657,1133.015645"/>
    <poly id="171826988" type="landuse.grass" color="194,194,130" fill="1" layer="-3.00" shape="433.466427,1229.882242 443.602430,1217.362831 438.568736,1212.555410 435.003845,1212.489340 433.678799,1214.577152 434.562702,1217.417451 433.240599,1219.638729 434.006962,1223.305059 432.552121,1225.662795 432.482641,1228.668770 433.466427,1229.882242"/>
    <poly id="171826989" type="landuse.grass" color="194,194,130" fill="1" layer="-3.00" shape="244.449708,1036.905557 247.341849,1039.389906 245.361288,1041.915093 250.388528,1045.798881 255.784207,1048.539524 316.067977,1095.992068 373.960772,1141.572984 430.553762,1186.126086 436.199813,1178.991247 261.436965,1041.404334 257.959284,1037.608724 254.116895,1034.511079 251.663718,1032.540029 250.060288,1034.622910 248.288440,1033.382365 247.342270,1032.646583 244.449708,1036.905557"/>
    <poly id="171826996" type="landuse.grass" color="194,194,130" fill="1" layer="-3.00" shape="147.194159,996.034976 139.424511,990.309090 90.385288,1054.586914 87.339450,1052.829347 44.031298,1109.480942 54.658460,1114.898651 147.194159,996.034976"/>
    <poly id="171829341" type="landuse.grass" color="194,194,130" fill="1" layer="-3.00" shape="244.902682,1026.680435 190.896906,984.486888 188.814444,985.779188 187.101551,985.672374 185.312192,988.248999 194.861676,995.270943 236.461046,1029.860178 236.785938,1031.355226 239.507552,1033.186810 244.902682,1026.680435"/>
    <poly id="171829342" type="landuse.grass" color="194,194,130" fill="1" layer="-3.00" shape="508.233505,1247.585336 513.479248,1240.147833 502.857758,1231.869246 495.500212,1237.417093 508.233505,1247.585336"/>
    <poly id="173194947" type="amenity.shelter" color="237,199,199" fill="1" layer="-1.00" shape="646.517427,1126.199264 647.618646,1127.198770 656.354100,1117.626060 655.252881,1116.626552 646.517427,1126.199264"/>
    <poly id="173194949" type="amenity.shelter" color="237,199,199" fill="1" layer="-1.00" shape="639.963647,1120.167672 648.766699,1110.582333 648.032388,1109.908581 639.229337,1119.493921 639.963647,1120.167672"/>
    <poly id="173194950" type="amenity.shelter" color="237,199,199" fill="1" layer="-1.00" shape="597.017618,1333.504480 597.648635,1332.878574 594.996906,1330.199568 594.365889,1330.825475 597.017618,1333.504480"/>
    <poly id="173194952" type="amenity.shelter" color="237,199,199" fill="1" layer="-1.00" shape="626.701488,1349.675996 625.997314,1350.370274 620.463912,1344.739106 621.168330,1344.055950 626.701488,1349.675996"/>
    <poly id="173194954" type="amenity.shelter" color="237,199,199" fill="1" layer="-1.00" shape="607.177109,1343.629476 607.648737,1343.162865 601.471904,1336.978375 601.000277,1337.444986 607.177109,1343.629476"/>
    <poly id="173194955" type="amenity.shelter" color="237,199,199" fill="1" layer="-1.00" shape="633.598493,1356.512321 632.740735,1357.321253 630.398724,1354.835710 631.249698,1354.026926 633.598493,1356.512321"/>
    <poly id="173278836" type="amenity.shelter" color="237,199,199" fill="1" layer="-1.00" shape="193.853930,1001.580293 203.894110,1009.615150 204.825414,1008.448435 194.785479,1000.424698 193.853930,1001.580293"/>
    <poly id="179341903" type="landuse.grass" color="194,194,130" fill="1" layer="-3.00" shape="530.543434,1256.196227 524.720380,1250.983260 525.766626,1250.103392 521.124061,1246.099586 518.631127,1244.162668 512.910322,1251.911074 530.497489,1268.593344 531.825405,1267.251042 533.413908,1265.413389 531.830759,1261.331061 528.639505,1258.196615 530.543434,1256.196227"/>
    <poly id="179341904" type="landuse.grass" color="194,194,130" fill="1" layer="-3.00" shape="582.861460,1315.722712 555.073531,1288.882877 554.475699,1289.474676 546.765645,1281.788412 547.135022,1281.301792 543.793145,1278.415460 542.224505,1280.230417 553.091870,1291.051881 557.652590,1293.499659 558.412995,1292.893153 559.683872,1294.200475 558.737016,1295.278444 567.478600,1303.576283 576.464843,1312.814593 577.162548,1312.443150 581.719580,1316.882863 582.861460,1315.722712"/>
    <poly id="179341905" type="landuse.grass" color="194,194,130" fill="1" layer="-3.00" shape="584.096603,1314.482615 585.052694,1313.515724 567.256154,1296.248119 553.511050,1282.964041 552.985393,1283.442974 584.096603,1314.482615"/>
    <poly id="179341906" type="landuse.grass" color="194,194,130" fill="1" layer="-3.00" shape="585.982383,1312.582796 587.569492,1310.989997 574.341571,1296.837656 547.559523,1269.141145 540.095521,1262.150508 542.234129,1266.799238 547.026110,1272.658075 555.405256,1280.830346 585.982383,1312.582796"/>
    <poly id="183792682" type="man_made.bridge" color="255,230,230" fill="1" layer="-1.00" shape="641.740867,1048.545035 672.226213,1022.703875 674.705443,1024.941618 678.784169,1028.613018 682.475133,1031.936868 686.900163,1035.923356 689.642569,1038.400124 666.471450,1069.354737 664.666650,1067.536137 657.878479,1061.342762 655.751692,1059.698162 641.740867,1048.545035"/>
    <poly id="19001815" type="amenity.conference_centre" color="237,199,199" fill="1" layer="-1.00" shape="917.084303,1018.882021 925.103258,1029.210432 938.619417,1046.617744 946.121352,1056.278751 947.351278,1057.887513 950.991678,1055.203804 950.816456,1054.951715 952.372578,1053.793695 957.506341,1049.875456 962.353994,1046.219432 962.474162,1046.127775 965.337833,1043.928472 967.493825,1042.267688 972.352867,1038.511276 972.439600,1038.442609 977.478658,1034.537597 979.080576,1033.300689 979.220411,1033.486790 982.477550,1030.967296 982.543443,1030.876831 985.339532,1028.690150 987.548837,1026.983695 987.454541,1026.707575 988.095359,1026.215038 962.000094,992.336596 958.059942,987.237604 952.172150,991.751013 946.018358,996.515071 937.295015,1003.271706 927.641347,1010.627404 917.084303,1018.882021"/>
    <poly id="19001815#1" type="building.commercial" color="255,230,230" fill="1" layer="-1.00" shape="917.084303,1018.882021 925.103258,1029.210432 938.619417,1046.617744 946.121352,1056.278751 947.351278,1057.887513 950.991678,1055.203804 950.816456,1054.951715 952.372578,1053.793695 957.506341,1049.875456 962.353994,1046.219432 962.474162,1046.127775 965.337833,1043.928472 967.493825,1042.267688 972.352867,1038.511276 972.439600,1038.442609 977.478658,1034.537597 979.080576,1033.300689 979.220411,1033.486790 982.477550,1030.967296 982.543443,1030.876831 985.339532,1028.690150 987.548837,1026.983695 987.454541,1026.707575 988.095359,1026.215038 962.000094,992.336596 958.059942,987.237604 952.172150,991.751013 946.018358,996.515071 937.295015,1003.271706 927.641347,1010.627404 917.084303,1018.882021"/>
    <poly id="194952575" type="landuse.grass" color="194,194,130" fill="1" layer="-3.00" shape="942.002389,1196.776268 935.301183,1187.097702 933.493166,1188.528317 880.916279,1230.219931 888.232265,1240.074097 942.002389,1196.776268"/>
    <poly id="194952577" type="landuse.grass" color="194,194,130" fill="1" layer="-3.00" shape="844.316896,1259.510089 846.059582,1261.597176 850.263986,1266.679145 851.944144,1268.700842 873.443521,1251.559697 866.109474,1242.429239 844.316896,1259.510089"/>
    <poly id="194955450" type="landuse.village_green" color="242,242,204" fill="1" layer="-3.00" shape="693.543058,1393.205266 728.173134,1366.115952 721.602325,1357.747852 686.972467,1384.848334 693.543058,1393.205266"/>
    <poly id="194955453" type="landuse.grass" color="194,194,130" fill="1" layer="-3.00" shape="779.346008,1326.445279 771.985482,1317.348922 763.150141,1324.531207 762.652277,1325.966476 762.308979,1327.331582 762.289604,1328.611676 762.547885,1329.863411 763.097390,1331.086491 763.908050,1332.148045 764.896988,1332.983130 766.036581,1333.570098 767.061273,1333.870276 768.122270,1333.969360 769.382143,1333.852650 770.557429,1333.593141 779.346008,1326.445279"/>
    <poly id="194955456" type="landuse.grass" color="194,194,130" fill="1" layer="-3.00" shape="784.459197,1307.093391 786.277451,1306.441421 788.124182,1306.467605 789.497554,1306.882529 790.742088,1307.611855 791.775152,1308.601761 792.548281,1309.808802 793.074369,1311.510884 793.086579,1313.302150 792.632342,1314.869987 792.015718,1316.152077 783.673812,1322.934017 776.218801,1313.861986 784.459197,1307.093391"/>
    <poly id="195401022" type="man_made.bridge" color="255,230,230" fill="1" layer="-1.00" shape="435.172983,1253.412813 431.813280,1255.879309 424.595372,1261.290657 416.522847,1267.344005 428.035183,1284.315655 447.508610,1271.401221 445.609966,1268.405248 443.392957,1265.438548 440.851616,1261.922620 437.991909,1257.512379 435.172983,1253.412813"/>
    <poly id="195401028" type="man_made.bridge" color="255,230,230" fill="1" layer="-1.00" shape="327.877104,1315.234066 314.685461,1318.752197 321.066377,1335.703333 333.962337,1332.013701 327.877104,1315.234066"/>
    <poly id="195401031" type="building.viaduct" color="255,230,230" fill="1" layer="-1.00" shape="327.877104,1315.234066 333.962337,1332.013701 351.108931,1326.249609 368.141363,1319.308574 381.177465,1313.045508 393.299468,1306.880530 413.458074,1294.573987 428.035183,1284.315655 416.522847,1267.344005 412.257852,1270.308962 410.988901,1271.861421 405.908446,1277.859938 395.782926,1284.381442 382.539214,1292.006609 369.493986,1298.781740 357.189384,1304.361043 343.579569,1309.846774 335.822985,1312.677420 327.877104,1315.234066"/>
    <poly id="195401031#1" type="landuse.railway" color="194,194,130" fill="1" layer="-3.00" shape="327.877104,1315.234066 333.962337,1332.013701 351.108931,1326.249609 368.141363,1319.308574 381.177465,1313.045508 393.299468,1306.880530 413.458074,1294.573987 428.035183,1284.315655 416.522847,1267.344005 412.257852,1270.308962 410.988901,1271.861421 405.908446,1277.859938 395.782926,1284.381442 382.539214,1292.006609 369.493986,1298.781740 357.189384,1304.361043 343.579569,1309.846774 335.822985,1312.677420 327.877104,1315.234066"/>
    <poly id="195407523" type="man_made.bridge" color="255,230,230" fill="1" layer="-1.00" shape="771.955054,912.896861 770.321050,914.835576 769.347910,915.958587 765.150107,920.768913 758.979392,927.848108 752.702343,935.029797 745.816533,942.925911 742.209890,947.144632 744.914480,949.444221 748.108838,952.100257 751.364253,954.754952 753.461284,956.589415 756.418113,958.939105 761.082177,953.417489 767.615257,945.840720 773.737734,938.729212 779.906500,931.561057 785.338568,925.154643 786.045458,924.271163 783.613294,922.321646 781.361438,920.546209 777.458001,917.438377 774.313085,914.870256 771.955054,912.896861"/>
    <poly id="198215717" type="landuse.residential" color="235,235,227" fill="1" layer="-3.00" shape="66.841473,1483.052864 64.750858,1482.431458 63.345058,1481.472202 62.168465,1479.829092 44.918485,1436.712945 38.555524,1420.919011 19.807937,1373.941419 19.481026,1372.357407 19.861540,1369.923167 21.616990,1367.358351 25.430591,1364.558818 32.308827,1359.465949 48.695073,1346.963155 64.509048,1334.973820 76.164396,1326.448187 86.420508,1318.487655 87.744176,1317.879744 92.460429,1318.142647 99.917239,1321.405036 99.564531,1322.336427 99.301881,1323.043274 112.232049,1327.965058 129.949476,1334.828510 146.095854,1340.936694 161.312484,1346.130762 172.968752,1349.311571 192.333009,1353.612886 210.609098,1356.280305 224.076554,1357.574041 231.979858,1358.011483 243.829972,1358.295004 262.770497,1358.166045 287.098933,1356.137796 303.378676,1353.541775 309.944341,1352.417626 323.018930,1349.135741 329.689222,1347.831268 330.525373,1347.890709 332.225499,1349.577966 332.586229,1351.161250 332.474935,1352.576908 328.840692,1353.669718 332.678481,1365.491537 338.735124,1382.516615 347.892164,1400.096433 366.602376,1440.299296 373.590712,1454.955938 377.540368,1453.088399 378.337122,1454.439515 378.828847,1455.808488 379.073089,1457.650279 378.414759,1460.112868 377.316854,1461.416758 373.378577,1464.107488 372.617646,1464.380208 371.668053,1463.177123 353.729455,1474.244235 337.459001,1484.317632 325.074530,1491.790487 318.628662,1494.336310 307.362758,1498.980372 296.170396,1502.343165 287.277325,1505.020947 279.020711,1505.169859 237.381219,1490.699956 178.335866,1470.550495 174.906287,1469.535785 170.657190,1468.906400 163.525892,1468.997251 66.841473,1483.052864"/>
    <poly id="198218165" type="landuse.residential" color="235,235,227" fill="1" layer="-3.00" shape="338.685312,1347.655006 338.220878,1346.908579 338.507173,1345.733865 339.245719,1345.061041 340.203159,1344.772853 347.357072,1342.623164 361.397872,1337.294846 385.757490,1326.520129 395.905804,1321.344534 401.247445,1318.266796 407.167371,1314.942633 420.249298,1306.753592 435.278710,1296.385160 434.577498,1294.442166 435.761771,1293.358938 437.534625,1292.496414 438.981107,1292.531291 440.919066,1293.000437 441.832709,1293.803736 442.961316,1294.813720 442.731555,1295.475312 441.651413,1296.355946 456.152521,1327.605209 465.812853,1348.634815 468.443294,1354.040477 479.794996,1378.215316 482.692424,1384.649964 485.301655,1390.634735 485.876075,1391.445517 486.730265,1392.940043 486.805850,1394.830064 486.231648,1396.801170 485.466603,1398.119954 483.821441,1399.847599 466.642915,1408.160148 446.301178,1418.300647 430.472856,1426.895135 389.573047,1451.198359 390.140448,1451.998157 390.213778,1453.476507 388.343895,1454.552615 386.244823,1454.776956 383.476911,1453.602848 382.302139,1452.037517 382.068042,1450.963306 383.488313,1450.119664 371.086044,1423.564654 363.528360,1407.407225 354.652215,1389.019996 349.369842,1377.552735 338.685312,1347.655006"/>
    <poly id="198905829" type="building.residential" color="255,230,230" fill="1" layer="-1.00" shape="431.080130,1422.731161 425.844070,1411.507609 424.554136,1408.720775 426.959239,1407.599498 435.491701,1403.639130 432.839749,1397.566305 438.737201,1394.765668 447.651756,1413.986759 433.435043,1421.488590 431.080130,1422.731161"/>
    <poly id="199425800" type="building.yes" color="255,230,230" fill="1" layer="-1.00" shape="804.553814,1131.493244 801.379942,1135.324082 804.421721,1137.838843 807.595595,1134.008008 804.553814,1131.493244"/>
    <poly id="199425801" type="building.government" color="255,230,230" fill="1" layer="-1.00" shape="713.016535,1116.368707 716.805823,1121.081361 721.588749,1117.270728 717.799218,1112.546947 713.016535,1116.368707"/>
    <poly id="199425802" type="building.service" color="255,230,230" fill="1" layer="-1.00" shape="691.754585,1071.780825 696.163739,1075.355951 698.655413,1072.296719 694.246014,1068.710469 692.957301,1070.296667 691.754585,1071.780825"/>
    <poly id="199425816" type="amenity.bench" color="237,199,199" fill="0" layer="-1.00" shape="846.316780,1181.517770 838.201129,1174.819190 842.558361,1169.549190 850.674014,1176.247777"/>
    <poly id="20144781" type="building.train_station" color="255,230,230" fill="1" layer="-1.00" shape="666.471450,1069.354737 664.666650,1067.536137 657.878479,1061.342762 655.751692,1059.698162 641.740867,1048.545035 629.041276,1061.509878 613.380155,1076.843336 578.324801,1114.591833 540.534075,1154.782141 529.987528,1167.477293 533.288365,1170.653838 542.900865,1179.344179 546.174720,1182.220883 554.986000,1190.283492 557.193101,1192.493785 559.699612,1194.430424 560.791824,1193.171215 570.647567,1182.394152 608.557765,1141.155455 643.410430,1101.597844 657.053620,1087.098930 667.639506,1075.860914 670.265937,1073.065764 666.471450,1069.354737"/>
    <poly id="202156996" type="leisure.park" color="207,245,201" fill="1" layer="-2.00" shape="440.305342,1109.053000 467.813988,1097.274610 443.573008,1078.079717 440.305342,1109.053000"/>
    <poly id="202162476" type="landuse.brownfield" color="194,194,130" fill="1" layer="-3.00" shape="864.685929,1164.923831 894.796755,1189.722561 922.098417,1168.181313 901.237095,1139.273619 864.685929,1164.923831"/>
    <poly id="202162478" type="landuse.construction" color="194,194,130" fill="1" layer="-3.00" shape="782.603408,1254.456383 837.821905,1211.325841 799.098610,1162.169318 746.001727,1207.034055 779.226950,1249.990543 782.603408,1254.456383"/>
    <poly id="225034822" type="building.yes" color="255,230,230" fill="1" layer="-1.00" shape="205.693740,1405.372554 202.948870,1402.172814 200.942939,1402.005710 201.193610,1400.141864 199.953630,1398.700419 199.592838,1401.723968 196.494350,1401.258305 197.746961,1391.905707 200.709285,1392.352123 200.354784,1395.353278 201.789496,1394.242202 202.147974,1392.342591 204.064734,1392.467156 207.267709,1389.981704 209.726182,1393.121007 212.002096,1393.526957 211.681712,1395.614895 214.084434,1398.688666 211.256449,1400.943278 210.833077,1402.977853 208.708477,1402.969154 205.693740,1405.372554"/>
    <poly id="225034826" type="building.residential" color="255,230,230" fill="1" layer="-1.00" shape="296.534854,1397.101549 296.467324,1396.502150 296.121834,1396.532032 291.299277,1396.983449 282.838409,1397.726619 282.826040,1396.858940 281.808526,1386.432603 288.071902,1385.760200 289.034242,1385.694444 289.473928,1389.623902 295.758143,1388.973304 303.904756,1388.136945 303.664943,1384.959750 308.202095,1384.492391 312.753342,1395.118924 315.620006,1394.922122 316.005486,1395.781565 318.366188,1401.259871 319.848769,1404.776848 313.115855,1408.775594 311.389469,1402.515487 300.731595,1403.351630 300.660138,1402.574277 301.256142,1402.516610 301.211084,1401.705291 301.005628,1396.702414 296.534854,1397.101549"/>
    <poly id="225034827" type="building.residential" color="255,230,230" fill="1" layer="-1.00" shape="272.613589,1375.140822 273.753388,1387.723210 253.650210,1385.296205 254.233041,1376.036310 272.613589,1375.140822"/>
    <poly id="231023120" type="building.hotel" color="255,230,230" fill="1" layer="-1.00" shape="1077.112190,1390.893079 1088.341423,1406.525968 1068.522647,1421.070006 1062.231714,1424.201197 1055.605930,1425.370164 1049.454117,1425.249084 1044.997459,1424.434326 1041.262730,1423.114134 1037.493793,1421.471996 1034.068349,1419.399484 1030.588411,1415.770316 1009.565577,1389.636504 1022.518288,1380.784279 1041.027250,1405.871632 1045.880219,1409.593111 1050.895896,1410.829589 1056.944177,1410.251906 1060.695469,1408.611826 1067.794349,1403.014871 1065.269984,1399.320225 1077.112190,1390.893079"/>
    <poly id="234463917" type="building.residential" color="255,230,230" fill="1" layer="-1.00" shape="229.663802,1090.588859 226.559153,1088.009066 230.018514,1083.292457 228.826392,1082.484219 236.777215,1071.837563 281.858509,1107.385121 345.997624,1157.957634 350.618210,1152.647986 365.187555,1164.177440 358.240997,1173.277252 346.867391,1188.149812 254.549500,1115.888655 248.221917,1111.210139 240.490016,1121.317820 238.872821,1119.395081 237.237680,1120.655227 221.225857,1103.149105 224.059697,1099.614705 223.380978,1098.694979 229.663802,1090.588859"/>
    <poly id="234463934" type="amenity.school" color="237,199,199" fill="1" layer="-1.00" shape="298.689836,1293.022208 281.933054,1279.860983 263.022697,1265.078229 263.308674,1264.504407 261.753020,1263.214575 262.977322,1259.949414 251.330746,1250.759277 231.160164,1234.858327 230.292073,1235.812218 221.618440,1229.394018 209.882918,1221.407718 204.907795,1228.171926 203.658481,1227.231427 193.725979,1240.025050 193.071743,1241.441581 192.843338,1242.470366 192.901438,1243.871159 193.111985,1245.413241 194.290796,1247.156482 196.355627,1248.757744 195.338637,1250.037631 194.182866,1251.487499 184.058028,1264.174119 180.262020,1261.019872 164.904184,1280.465347 151.190559,1269.273649 138.872710,1285.914628 152.391249,1296.264906 168.068046,1300.469599 166.980825,1302.563360 177.012407,1305.012285 192.665508,1308.761348 208.865102,1311.441265 214.796285,1312.011273 229.207298,1312.382848 242.381362,1311.758046 253.281412,1309.892697 256.762188,1309.226069 264.264718,1306.879393 288.170672,1290.928753 294.996023,1296.030300 298.689836,1293.022208"/>
    <poly id="234463935" type="amenity.parking" color="184,184,179" fill="1" layer="-1.00" shape="310.557387,1281.788464 327.869994,1261.087422 317.031529,1252.524699 316.135150,1253.735133 314.291382,1252.306985 315.175420,1251.152461 314.312428,1250.492725 304.324636,1242.033657 296.108420,1235.115619 281.199339,1254.005552 280.594379,1255.810449 280.411355,1257.973241 310.557387,1281.788464"/>
    <poly id="234463940" type="landuse.recreation_ground" color="194,194,130" fill="1" layer="-3.00" shape="281.199339,1254.005552 296.108420,1235.115619 322.621260,1203.172929 320.404501,1201.452565 327.700657,1190.052700 324.645185,1184.467317 323.780868,1183.440399 267.397823,1139.529259 266.031693,1138.524557 263.236285,1137.651562 261.100702,1137.765482 258.490710,1137.912133 255.781687,1139.106965 253.070148,1140.802595 250.651165,1142.836722 221.062468,1182.714947 217.302078,1187.627384 218.990431,1190.928365 212.135332,1204.154710 240.361004,1222.737470 281.199339,1254.005552"/>
    <poly id="234463942" type="leisure.pitch" color="207,245,201" fill="1" layer="-2.00" shape="227.150634,1186.697676 249.205591,1203.703143 279.450757,1164.656293 257.402771,1147.661663 227.150634,1186.697676"/>
    <poly id="234463942#1" type="sport.soccer" color="79,230,125" fill="1" layer="-2.00" shape="227.150634,1186.697676 249.205591,1203.703143 279.450757,1164.656293 257.402771,1147.661663 227.150634,1186.697676"/>
    <poly id="234463944" type="leisure.playground" color="207,245,201" fill="1" layer="-2.00" shape="253.591674,1209.604053 265.783358,1191.219140 280.577234,1177.250101 290.460798,1179.135026 300.852014,1183.723895 319.224220,1194.412601 282.687572,1239.328799 276.480320,1234.558575 263.845647,1227.037104 250.033527,1219.986770 253.591674,1209.604053"/>
    <poly id="234973637" type="building.retail" color="255,230,230" fill="1" layer="-1.00" shape="304.324636,1242.033657 314.312428,1250.492725 315.175420,1251.152461 314.291382,1252.306985 316.135150,1253.735133 317.031529,1252.524699 327.869994,1261.087422 329.197984,1261.903812 346.640220,1275.372771 348.036290,1276.198792 349.402105,1276.268805 383.592949,1257.309845 383.116036,1250.766223 383.487844,1249.467223 383.694134,1248.049471 383.855549,1246.443541 383.813195,1244.830976 383.589140,1243.289185 383.073121,1241.742707 382.206939,1240.014782 380.722172,1238.244864 380.182337,1233.772359 389.206581,1222.245451 394.538245,1226.712424 397.541161,1222.840570 401.244197,1225.785607 410.263520,1214.648314 406.484629,1211.649304 409.139282,1208.297005 413.519328,1202.236046 376.261444,1172.946504 365.187555,1164.177440 358.240997,1173.277252 349.519564,1184.686259 346.867391,1188.149812 304.324636,1242.033657"/>
    <poly id="237202142" type="building.commercial" color="255,230,230" fill="1" layer="-1.00" shape="187.041780,1158.073391 189.915295,1161.559600 192.726898,1159.171812 203.486289,1150.310220 187.950994,1135.019195 183.574654,1139.088443 186.497549,1140.815400 194.230812,1148.901204 194.018417,1151.576517 186.586302,1157.426928 187.041780,1158.073391"/>
    <poly id="237202144" type="building.commercial" color="255,230,230" fill="1" layer="-1.00" shape="177.113633,1157.246778 182.161164,1162.665653 187.041780,1158.073391 186.586302,1157.426928 194.018417,1151.576517 194.230812,1148.901204 186.497549,1140.815400 183.574654,1139.088443 179.410996,1142.952699 180.294024,1146.360483 178.147330,1148.121568 178.646803,1150.758897 181.159486,1153.273847 177.113633,1157.246778"/>
    <poly id="237202146" type="building.office" color="255,230,230" fill="1" layer="-1.00" shape="104.558003,1130.096930 103.550175,1129.028711 126.259947,1100.707612 127.618058,1102.268833 143.807458,1120.115691 143.387913,1120.481048 151.747255,1128.942414 151.325989,1129.229915 152.242660,1130.166627 147.160682,1135.475540 145.786413,1134.103840 143.675175,1136.854512 135.406239,1128.491309 130.820460,1132.910190 128.508710,1129.967974 130.267414,1128.771824 129.301080,1127.124049 120.955205,1129.712121 116.451563,1125.872526 108.096846,1133.279064 104.558003,1130.096930"/>
    <poly id="237206971" type="building.commercial" color="255,230,230" fill="1" layer="-1.00" shape="416.522847,1267.344005 406.564265,1254.043598 381.240888,1272.840180 369.127092,1280.918946 356.941150,1288.187022 346.220574,1293.575620 341.144972,1295.790724 322.814033,1302.638104 327.877104,1315.234066 335.822985,1312.677420 343.579569,1309.846774 357.189384,1304.361043 369.493986,1298.781740 382.539214,1292.006609 395.782926,1284.381442 405.908446,1277.859938 410.988901,1271.861421 412.257852,1270.308962 416.522847,1267.344005"/>