<?xml version="1.0" encoding="UTF-8"?>

<!-- generated on Sun Jan 24 22:00:46 2021 by Eclipse SUMO netconvert Version 1.7.0
<configuration xmlns:xsi="http://www.w3.org/2001/XMLSchema-instance" xsi:noNamespaceSchemaLocation="http://sumo.dlr.de/xsd/netconvertConfiguration.xsd">

    <input>
        <type-files value="/opt/sumo-1.7.0/data/typemap/osmNetconvert.typ.xml"/>
        <osm-files value="osm_bbox.osm.xml"/>
    </input>

    <output>
        <output-file value="osm.net.xml"/>
        <output.street-names value="true"/>
        <output.original-names value="true"/>
    </output>

    <projection>
        <proj.utm value="true"/>
    </projection>

    <processing>
        <geometry.remove value="true"/>
        <roundabouts.guess value="true"/>
        <lefthand value="true"/>
    </processing>

    <tls_building>
        <tls.discard-simple value="true"/>
        <tls.join value="true"/>
        <tls.guess-signals value="true"/>
        <tls.default-type value="actuated"/>
    </tls_building>

    <ramp_guessing>
        <ramps.guess value="true"/>
    </ramp_guessing>

    <junctions>
        <junctions.join value="true"/>
        <junctions.corner-detail value="5"/>
    </junctions>

    <report>
        <verbose value="true"/>
        <aggregate-warnings value="5"/>
    </report>

</configuration>
-->

<net version="1.6" junctionCornerDetail="5" lefthand="true" limitTurnSpeed="5.50" xmlns:xsi="http://www.w3.org/2001/XMLSchema-instance" xsi:noNamespaceSchemaLocation="http://sumo.dlr.de/xsd/net_file.xsd">

    <location netOffset="-391605.20,-5819108.12" convBoundary="0.00,-0.00,2938.93,2262.24" origBoundary="13.402361,52.511490,13.445870,52.531772" projParameter="+proj=utm +zone=33 +ellps=WGS84 +datum=WGS84 +units=m +no_defs"/>

    <type id="highway.bridleway" priority="1" numLanes="1" speed="2.78" allow="pedestrian" oneway="1" width="2.00"/>
    <type id="highway.bus_guideway" priority="1" numLanes="1" speed="27.78" allow="bus" oneway="1"/>
    <type id="highway.cycleway" priority="1" numLanes="1" speed="8.33" allow="bicycle" oneway="0" width="1.00"/>
    <type id="highway.footway" priority="1" numLanes="1" speed="2.78" allow="pedestrian" oneway="1" width="2.00"/>
    <type id="highway.ford" priority="1" numLanes="1" speed="2.78" allow="army" oneway="0"/>
    <type id="highway.living_street" priority="2" numLanes="1" speed="2.78" disallow="tram rail_urban rail rail_electric rail_fast ship" oneway="0"/>
    <type id="highway.motorway" priority="14" numLanes="2" speed="39.44" allow="private emergency authority army vip passenger hov taxi bus coach delivery truck trailer motorcycle evehicle custom1 custom2" oneway="1"/>
    <type id="highway.motorway_link" priority="9" numLanes="1" speed="22.22" allow="private emergency authority army vip passenger hov taxi bus coach delivery truck trailer motorcycle evehicle custom1 custom2" oneway="1"/>
    <type id="highway.path" priority="1" numLanes="1" speed="2.78" allow="pedestrian bicycle" oneway="1" width="2.00"/>
    <type id="highway.pedestrian" priority="1" numLanes="1" speed="2.78" allow="pedestrian" oneway="1" width="2.00"/>
    <type id="highway.primary" priority="12" numLanes="2" speed="27.78" disallow="tram rail_urban rail rail_electric rail_fast ship" oneway="0"/>
    <type id="highway.primary_link" priority="7" numLanes="1" speed="22.22" disallow="tram rail_urban rail rail_electric rail_fast ship" oneway="0"/>
    <type id="highway.raceway" priority="15" numLanes="2" speed="83.33" allow="vip" oneway="0"/>
    <type id="highway.residential" priority="3" numLanes="1" speed="13.89" disallow="tram rail_urban rail rail_electric rail_fast ship" oneway="0"/>
    <type id="highway.secondary" priority="11" numLanes="1" speed="27.78" disallow="tram rail_urban rail rail_electric rail_fast ship" oneway="0"/>
    <type id="highway.secondary_link" priority="6" numLanes="1" speed="22.22" disallow="tram rail_urban rail rail_electric rail_fast ship" oneway="0"/>
    <type id="highway.service" priority="1" numLanes="1" speed="5.56" allow="pedestrian delivery bicycle" oneway="0"/>
    <type id="highway.stairs" priority="1" numLanes="1" speed="1.39" allow="pedestrian" oneway="1" width="2.00"/>
    <type id="highway.step" priority="1" numLanes="1" speed="1.39" allow="pedestrian" oneway="1" width="2.00"/>
    <type id="highway.steps" priority="1" numLanes="1" speed="1.39" allow="pedestrian" oneway="1" width="2.00"/>
    <type id="highway.tertiary" priority="10" numLanes="1" speed="22.22" disallow="tram rail_urban rail rail_electric rail_fast ship" oneway="0"/>
    <type id="highway.tertiary_link" priority="5" numLanes="1" speed="22.22" disallow="tram rail_urban rail rail_electric rail_fast ship" oneway="0"/>
    <type id="highway.track" priority="1" numLanes="1" speed="5.56" allow="pedestrian motorcycle moped bicycle" oneway="0"/>
    <type id="highway.trunk" priority="13" numLanes="2" speed="27.78" disallow="pedestrian bicycle tram rail_urban rail rail_electric rail_fast ship" oneway="0"/>
    <type id="highway.trunk_link" priority="8" numLanes="1" speed="22.22" disallow="pedestrian bicycle tram rail_urban rail rail_electric rail_fast ship" oneway="0"/>
    <type id="highway.unclassified" priority="4" numLanes="1" speed="13.89" disallow="tram rail_urban rail rail_electric rail_fast ship" oneway="0"/>
    <type id="highway.unsurfaced" priority="1" numLanes="1" speed="8.33" disallow="tram rail_urban rail rail_electric rail_fast ship" oneway="0"/>
    <type id="railway.highspeed" priority="21" numLanes="1" speed="69.44" allow="rail_fast" oneway="1"/>
    <type id="railway.light_rail" priority="19" numLanes="1" speed="27.78" allow="rail_urban" oneway="1"/>
    <type id="railway.preserved" priority="16" numLanes="1" speed="27.78" allow="rail" oneway="1"/>
    <type id="railway.rail" priority="20" numLanes="1" speed="44.44" allow="rail" oneway="1"/>
    <type id="railway.subway" priority="18" numLanes="1" speed="27.78" allow="rail_urban" oneway="1"/>
    <type id="railway.tram" priority="17" numLanes="1" speed="13.89" allow="tram" oneway="1"/>

    <edge id=":1104281016_0" function="internal">
        <lane id=":1104281016_0_0" index="0" allow="pedestrian delivery bicycle" speed="3.65" length="4.67" shape="849.67,1264.40 850.11,1263.03 849.93,1262.15 849.12,1261.77 847.68,1261.89"/>
    </edge>
    <edge id=":1166137168_0" function="internal">
        <lane id=":1166137168_0_0" index="0" disallow="tram rail_urban rail rail_electric rail_fast ship" speed="13.89" length="6.17" shape="873.24,1252.45 868.47,1256.31"/>
        <lane id=":1166137168_0_1" index="1" disallow="tram rail_urban rail rail_electric rail_fast ship" speed="13.89" length="6.17" shape="875.26,1254.93 870.47,1258.81"/>
        <lane id=":1166137168_0_2" index="2" disallow="tram rail_urban rail rail_electric rail_fast ship" speed="13.89" length="6.17" shape="877.28,1257.41 872.47,1261.30"/>
    </edge>
    <edge id=":1166137168_3" function="internal">
        <lane id=":1166137168_3_0" index="0" allow="pedestrian delivery bicycle" speed="6.08" length="7.76" shape="876.83,1261.79 874.96,1259.75 873.27,1258.58 871.78,1258.26 870.47,1258.81"/>
    </edge>
    <edge id=":1166137168_4" function="internal">
        <lane id=":1166137168_4_0" index="0" allow="pedestrian delivery bicycle" speed="5.04" length="5.00" shape="876.83,1261.79 875.83,1260.85 874.77,1260.45 873.65,1260.60 872.47,1261.30"/>
    </edge>
    <edge id=":1166137172_0" function="internal">
        <lane id=":1166137172_0_0" index="0" allow="pedestrian delivery bicycle" speed="5.02" length="5.03" shape="761.74,1388.38 762.70,1389.36 763.75,1389.80 764.87,1389.68 766.08,1389.00"/>
    </edge>
    <edge id=":1256247780_0" function="internal">
        <lane id=":1256247780_0_0" index="0" disallow="tram rail_urban rail rail_electric rail_fast ship" speed="3.65" length="4.67" shape="934.85,1310.14 933.48,1309.70 932.60,1309.89 932.23,1310.70 932.35,1312.14"/>
    </edge>
    <edge id=":1266415965_0" function="internal">
        <lane id=":1266415965_0_0" index="0" disallow="tram rail_urban rail rail_electric rail_fast ship" speed="13.89" length="9.35" shape="702.79,1369.44 710.08,1363.65"/>
        <lane id=":1266415965_0_1" index="1" disallow="tram rail_urban rail rail_electric rail_fast ship" speed="13.89" length="9.35" shape="700.78,1366.95 708.10,1361.13"/>
        <lane id=":1266415965_0_2" index="2" disallow="tram rail_urban rail rail_electric rail_fast ship" speed="13.89" length="9.35" shape="698.78,1364.46 706.12,1358.62"/>
    </edge>
    <edge id=":1266415965_3" function="internal">
        <lane id=":1266415965_3_0" index="0" allow="pedestrian delivery bicycle" speed="6.16" length="7.78" shape="698.78,1364.46 700.79,1362.59 701.96,1360.90 702.29,1359.38 701.78,1358.05"/>
    </edge>
    <edge id=":1266415965_4" function="internal">
        <lane id=":1266415965_4_0" index="0" allow="pedestrian delivery bicycle" speed="6.84" length="10.27" shape="699.22,1359.97 701.21,1361.96 703.36,1362.82 705.66,1362.55 708.10,1361.13"/>
    </edge>
    <edge id=":1266415965_5" function="internal">
        <lane id=":1266415965_5_0" index="0" allow="pedestrian delivery bicycle" speed="6.06" length="7.82" shape="699.22,1359.97 700.37,1360.85 701.91,1360.91 703.82,1360.17 706.12,1358.62"/>
    </edge>
    <edge id=":1266415965_6" function="internal">
        <lane id=":1266415965_6_0" index="0" allow="pedestrian delivery bicycle" speed="3.65" length="4.67" shape="699.22,1359.97 700.58,1360.45 701.46,1360.29 701.86,1359.49 701.78,1358.05"/>
    </edge>
    <edge id=":1273546310_0" function="internal">
        <lane id=":1273546310_0_0" index="0" disallow="tram rail_urban rail rail_electric rail_fast ship" speed="13.89" length="6.23" shape="742.23,1357.00 737.36,1360.90"/>
        <lane id=":1273546310_0_1" index="1" disallow="tram rail_urban rail rail_electric rail_fast ship" speed="13.89" length="6.23" shape="744.22,1359.50 739.36,1363.40"/>
        <lane id=":1273546310_0_2" index="2" disallow="tram rail_urban rail rail_electric rail_fast ship" speed="13.89" length="6.23" shape="746.22,1362.00 741.37,1365.89"/>
    </edge>
    <edge id=":1273546310_3" function="internal">
        <lane id=":1273546310_3_0" index="0" allow="pedestrian delivery bicycle" speed="5.14" length="5.07" shape="746.22,1362.00 745.30,1362.99 744.91,1364.06 745.05,1365.22 745.72,1366.46"/>
    </edge>
    <edge id=":1275468904_0" function="internal">
        <lane id=":1275468904_0_0" index="0" disallow="tram rail_urban rail rail_electric rail_fast ship" speed="13.89" length="4.99" shape="318.80,1304.80 316.84,1300.22"/>
    </edge>
    <edge id=":1275468904_1" function="internal">
        <lane id=":1275468904_1_0" index="0" disallow="tram rail_urban rail rail_electric rail_fast ship" speed="3.65" length="2.34" shape="318.80,1304.80 317.60,1304.01 316.70,1303.95"/>
    </edge>
    <edge id=":1275468904_4" function="internal">
        <lane id=":1275468904_4_0" index="0" disallow="tram rail_urban rail rail_electric rail_fast ship" speed="3.65" length="2.34" shape="316.70,1303.95 316.12,1304.63 315.85,1306.05"/>
    </edge>
    <edge id=":1275468904_2" function="internal">
        <lane id=":1275468904_2_0" index="0" disallow="tram rail_urban rail rail_electric rail_fast ship" speed="13.89" length="4.96" shape="313.91,1301.49 315.85,1306.05"/>
    </edge>
    <edge id=":1275468904_3" function="internal">
        <lane id=":1275468904_3_0" index="0" disallow="tram rail_urban rail rail_electric rail_fast ship" speed="3.65" length="2.34" shape="313.91,1301.49 315.12,1302.27 316.01,1302.32"/>
    </edge>
    <edge id=":1275468904_5" function="internal">
        <lane id=":1275468904_5_0" index="0" disallow="tram rail_urban rail rail_electric rail_fast ship" speed="3.65" length="2.34" shape="316.01,1302.32 316.58,1301.64 316.84,1300.22"/>
    </edge>
    <edge id=":1275468905_0" function="internal">
        <lane id=":1275468905_0_0" index="0" disallow="tram rail_urban rail rail_electric rail_fast ship" speed="13.89" length="5.56" shape="770.66,1315.57 775.00,1312.10"/>
        <lane id=":1275468905_0_1" index="1" disallow="tram rail_urban rail rail_electric rail_fast ship" speed="13.89" length="5.56" shape="768.66,1313.07 773.01,1309.60"/>
        <lane id=":1275468905_0_2" index="2" disallow="tram rail_urban rail rail_electric rail_fast ship" speed="13.89" length="5.56" shape="766.66,1310.57 771.02,1307.09"/>
    </edge>
    <edge id=":1275468907_0" function="internal">
        <lane id=":1275468907_0_0" index="0" disallow="tram rail_urban rail rail_electric rail_fast ship" speed="13.89" length="6.84" shape="784.34,1323.43 778.97,1327.70"/>
        <lane id=":1275468907_0_1" index="1" disallow="tram rail_urban rail rail_electric rail_fast ship" speed="13.89" length="6.84" shape="786.32,1325.94 780.97,1330.20"/>
        <lane id=":1275468907_0_2" index="2" disallow="tram rail_urban rail rail_electric rail_fast ship" speed="13.89" length="6.84" shape="788.31,1328.45 782.96,1332.70"/>
    </edge>
    <edge id=":1275468908_0" function="internal">
        <lane id=":1275468908_0_0" index="0" allow="pedestrian delivery bicycle" speed="8.66" length="7.06" shape="798.71,1307.22 798.40,1309.59 797.93,1311.47 797.30,1312.87 796.52,1313.79"/>
    </edge>
    <edge id=":1275468908_1" function="internal">
        <lane id=":1275468908_1_0" index="0" disallow="tram rail_urban rail rail_electric rail_fast ship" speed="13.89" length="7.41" shape="802.33,1309.18 796.52,1313.79"/>
        <lane id=":1275468908_1_1" index="1" disallow="tram rail_urban rail rail_electric rail_fast ship" speed="13.89" length="7.41" shape="804.32,1311.70 798.51,1316.30"/>
        <lane id=":1275468908_1_2" index="2" disallow="tram rail_urban rail rail_electric rail_fast ship" speed="13.89" length="7.41" shape="806.30,1314.21 800.49,1318.81"/>
    </edge>
    <edge id=":1275468911_0" function="internal">
        <lane id=":1275468911_0_0" index="0" allow="pedestrian delivery bicycle" speed="3.65" length="4.67" shape="724.93,1359.19 724.48,1360.56 724.66,1361.44 725.47,1361.82 726.91,1361.70"/>
    </edge>
    <edge id=":1275468917_0" function="internal">
        <lane id=":1275468917_0_0" index="0" allow="pedestrian delivery bicycle" speed="8.33" length="5.87" shape="761.94,1335.74 756.19,1334.56"/>
    </edge>
    <edge id=":1275468917_1" function="internal">
        <lane id=":1275468917_1_0" index="0" allow="pedestrian delivery bicycle" speed="8.33" length="6.23" shape="758.17,1337.08 759.06,1335.81 758.84,1334.55 758.31,1333.10 758.25,1331.24"/>
    </edge>
    <edge id=":1275468917_2" function="internal">
        <lane id=":1275468917_2_0" index="0" allow="pedestrian delivery bicycle" speed="3.65" length="4.67" shape="758.17,1337.08 758.61,1335.71 758.43,1334.83 757.62,1334.45 756.19,1334.56"/>
    </edge>
    <edge id=":1566942138_0" function="internal">
        <lane id=":1566942138_0_0" index="0" allow="pedestrian delivery bicycle" speed="5.02" length="5.03" shape="1047.41,1024.31 1046.11,1024.77 1044.98,1024.70 1044.02,1024.09 1043.24,1022.96"/>
    </edge>
    <edge id=":1566942138_1" function="internal">
        <lane id=":1566942138_1_0" index="0" disallow="tram rail_urban rail rail_electric rail_fast ship" speed="8.33" length="9.32" shape="1047.41,1024.31 1039.15,1028.63"/>
    </edge>
    <edge id=":1566942138_2" function="internal">
        <lane id=":1566942138_2_0" index="0" disallow="tram rail_urban rail rail_electric rail_fast ship" speed="3.65" length="2.34" shape="1047.41,1024.31 1046.72,1025.58 1046.73,1026.47"/>
    </edge>
    <edge id=":1566942138_9" function="internal">
        <lane id=":1566942138_9_0" index="0" disallow="tram rail_urban rail rail_electric rail_fast ship" speed="3.65" length="2.34" shape="1046.73,1026.47 1047.46,1027.00 1048.89,1027.15"/>
    </edge>
    <edge id=":1566942138_3" function="internal">
        <lane id=":1566942138_3_0" index="0" disallow="tram rail_urban rail rail_electric rail_fast ship" speed="8.33" length="9.32" shape="1040.63,1031.46 1048.89,1027.15"/>
    </edge>
    <edge id=":1566942138_4" function="internal">
        <lane id=":1566942138_4_0" index="0" allow="pedestrian delivery bicycle" speed="6.90" length="4.99" shape="1040.63,1031.46 1042.83,1029.87 1043.99,1027.92"/>
    </edge>
    <edge id=":1566942138_5" function="internal">
        <lane id=":1566942138_5_0" index="0" disallow="tram rail_urban rail rail_electric rail_fast ship" speed="3.65" length="2.34" shape="1040.63,1031.46 1041.32,1030.20 1041.31,1029.31"/>
    </edge>
    <edge id=":1566942138_10" function="internal">
        <lane id=":1566942138_10_0" index="0" allow="pedestrian delivery bicycle" speed="6.90" length="5.12" shape="1043.99,1027.92 1044.13,1025.62 1043.24,1022.96"/>
    </edge>
    <edge id=":1566942138_11" function="internal">
        <lane id=":1566942138_11_0" index="0" disallow="tram rail_urban rail rail_electric rail_fast ship" speed="3.65" length="2.34" shape="1041.31,1029.31 1040.58,1028.78 1039.15,1028.63"/>
    </edge>
    <edge id=":1566942138_6" function="internal">
        <lane id=":1566942138_6_0" index="0" allow="pedestrian delivery bicycle" speed="5.08" length="5.02" shape="1040.37,1024.38 1040.83,1025.72 1040.78,1026.87 1040.22,1027.84 1039.15,1028.63"/>
    </edge>
    <edge id=":1566942138_7" function="internal">
        <lane id=":1566942138_7_0" index="0" allow="pedestrian delivery bicycle" speed="6.84" length="10.27" shape="1040.37,1024.38 1041.97,1026.70 1043.92,1027.94 1046.23,1028.09 1048.89,1027.15"/>
    </edge>
    <edge id=":1566942138_8" function="internal">
        <lane id=":1566942138_8_0" index="0" allow="pedestrian delivery bicycle" speed="3.65" length="4.67" shape="1040.37,1024.38 1041.62,1025.10 1042.52,1025.10 1043.06,1024.39 1043.24,1022.96"/>
    </edge>
    <edge id=":1566942169_0" function="internal">
        <lane id=":1566942169_0_0" index="0" allow="pedestrian delivery bicycle" speed="5.56" length="9.30" shape="1000.82,976.09 992.62,980.46"/>
    </edge>
    <edge id=":1566942169_1" function="internal">
        <lane id=":1566942169_1_0" index="0" allow="pedestrian delivery bicycle" speed="5.56" length="10.11" shape="1000.82,976.09 998.64,977.74 997.48,979.71 997.35,982.01 998.26,984.64"/>
    </edge>
    <edge id=":1566942169_2" function="internal">
        <lane id=":1566942169_2_0" index="0" allow="pedestrian delivery bicycle" speed="3.65" length="4.67" shape="1000.82,976.09 1000.15,977.37 1000.19,978.26 1000.92,978.77 1002.36,978.90"/>
    </edge>
    <edge id=":1566942169_3" function="internal">
        <lane id=":1566942169_3_0" index="0" allow="pedestrian delivery bicycle" speed="5.11" length="5.06" shape="1001.11,983.19 1000.65,981.86 1000.71,980.71 1001.27,979.72 1002.36,978.90"/>
    </edge>
    <edge id=":1566942169_4" function="internal">
        <lane id=":1566942169_4_0" index="0" allow="pedestrian delivery bicycle" speed="5.56" length="10.20" shape="1001.11,983.19 999.50,980.90 997.55,979.68 995.26,979.54 992.62,980.46"/>
    </edge>
    <edge id=":1566942169_5" function="internal">
        <lane id=":1566942169_5_0" index="0" allow="pedestrian delivery bicycle" speed="3.65" length="4.67" shape="1001.11,983.19 999.86,982.48 998.96,982.49 998.43,983.21 998.26,984.64"/>
    </edge>
    <edge id=":1566942169_6" function="internal">
        <lane id=":1566942169_6_0" index="0" allow="pedestrian delivery bicycle" speed="5.03" length="5.01" shape="994.09,983.30 995.39,982.85 996.51,982.92 997.47,983.52 998.26,984.64"/>
    </edge>
    <edge id=":1566942169_7" function="internal">
        <lane id=":1566942169_7_0" index="0" allow="pedestrian delivery bicycle" speed="5.56" length="9.37" shape="994.09,983.30 1002.36,978.90"/>
    </edge>
    <edge id=":1566942169_8" function="internal">
        <lane id=":1566942169_8_0" index="0" allow="pedestrian delivery bicycle" speed="3.65" length="4.67" shape="994.09,983.30 994.79,982.04 994.77,981.14 994.05,980.62 992.62,980.46"/>
    </edge>
    <edge id=":1566942199_0" function="internal">
        <lane id=":1566942199_0_0" index="0" allow="pedestrian delivery bicycle" speed="5.03" length="5.01" shape="1030.16,1033.32 1028.86,1033.78 1027.73,1033.71 1026.77,1033.11 1025.98,1031.99"/>
    </edge>
    <edge id=":1566942199_1" function="internal">
        <lane id=":1566942199_1_0" index="0" disallow="tram rail_urban rail rail_electric rail_fast ship" speed="8.33" length="9.40" shape="1030.16,1033.32 1021.83,1037.67"/>
    </edge>
    <edge id=":1566942199_2" function="internal">
        <lane id=":1566942199_2_0" index="0" disallow="tram rail_urban rail rail_electric rail_fast ship" speed="3.65" length="2.34" shape="1030.16,1033.32 1029.46,1034.59 1029.48,1035.48"/>
    </edge>
    <edge id=":1566942199_9" function="internal">
        <lane id=":1566942199_9_0" index="0" disallow="tram rail_urban rail rail_electric rail_fast ship" speed="3.65" length="2.34" shape="1029.48,1035.48 1030.20,1036.00 1031.64,1036.16"/>
    </edge>
    <edge id=":1566942199_3" function="internal">
        <lane id=":1566942199_3_0" index="0" disallow="tram rail_urban rail rail_electric rail_fast ship" speed="8.33" length="9.40" shape="1023.31,1040.51 1031.64,1036.16"/>
    </edge>
    <edge id=":1566942199_4" function="internal">
        <lane id=":1566942199_4_0" index="0" allow="pedestrian delivery bicycle" speed="6.89" length="5.06" shape="1023.31,1040.51 1025.55,1038.89 1026.75,1036.93"/>
    </edge>
    <edge id=":1566942199_5" function="internal">
        <lane id=":1566942199_5_0" index="0" disallow="tram rail_urban rail rail_electric rail_fast ship" speed="3.65" length="2.34" shape="1023.31,1040.51 1024.00,1039.25 1023.98,1038.35"/>
    </edge>
    <edge id=":1566942199_10" function="internal">
        <lane id=":1566942199_10_0" index="0" allow="pedestrian delivery bicycle" speed="6.89" length="5.10" shape="1026.75,1036.93 1026.89,1034.63 1025.98,1031.99"/>
    </edge>
    <edge id=":1566942199_11" function="internal">
        <lane id=":1566942199_11_0" index="0" disallow="tram rail_urban rail rail_electric rail_fast ship" speed="3.65" length="2.34" shape="1023.98,1038.35 1023.26,1037.83 1021.83,1037.67"/>
    </edge>
    <edge id=":1566942199_6" function="internal">
        <lane id=":1566942199_6_0" index="0" allow="pedestrian delivery bicycle" speed="5.07" length="5.04" shape="1023.13,1033.44 1023.58,1034.76 1023.52,1035.90 1022.93,1036.87 1021.83,1037.67"/>
    </edge>
    <edge id=":1566942199_7" function="internal">
        <lane id=":1566942199_7_0" index="0" allow="pedestrian delivery bicycle" speed="6.85" length="10.21" shape="1023.13,1033.44 1024.74,1035.73 1026.70,1036.95 1029.00,1037.09 1031.64,1036.16"/>
    </edge>
    <edge id=":1566942199_8" function="internal">
        <lane id=":1566942199_8_0" index="0" allow="pedestrian delivery bicycle" speed="3.65" length="4.67" shape="1023.13,1033.44 1024.39,1034.15 1025.28,1034.14 1025.81,1033.42 1025.98,1031.99"/>
    </edge>
    <edge id=":1615477649_0" function="internal">
        <lane id=":1615477649_0_0" index="0" allow="tram" speed="11.11" length="0.10" shape="547.98,1279.80 547.98,1279.80"/>
    </edge>
    <edge id=":1615531695_0" function="internal">
        <lane id=":1615531695_0_0" index="0" allow="tram" speed="5.56" length="8.32" shape="538.87,1271.57 537.02,1269.94 535.80,1268.73 534.88,1267.31 533.91,1265.07"/>
    </edge>
    <edge id=":1615531695_1" function="internal">
        <lane id=":1615531695_1_0" index="0" allow="tram" speed="4.17" length="12.68" shape="538.87,1271.57 529.24,1263.32"/>
    </edge>
    <edge id=":1615564389_0" function="internal">
        <lane id=":1615564389_0_0" index="0" allow="tram" speed="8.33" length="2.99" shape="613.15,1152.81 615.17,1150.60"/>
    </edge>
    <edge id=":1615564390_0" function="internal">
        <lane id=":1615564390_0_0" index="0" allow="tram" speed="13.89" length="2.95" shape="617.82,1153.08 615.81,1155.24"/>
    </edge>
    <edge id=":1615564390_1" function="internal">
        <lane id=":1615564390_1_0" index="0" allow="tram" speed="2.79" length="1.50" shape="615.73,1155.15 616.14,1154.77 616.30,1154.66 616.19,1154.81 615.81,1155.24"/>
    </edge>
    <edge id=":1615564397_0" function="internal">
        <lane id=":1615564397_0_0" index="0" allow="tram" speed="9.72" length="2.88" shape="588.78,1179.59 590.78,1177.52"/>
    </edge>
    <edge id=":1615564397_1" function="internal">
        <lane id=":1615564397_1_0" index="0" allow="tram" speed="9.72" length="2.89" shape="588.78,1179.59 590.72,1177.45"/>
    </edge>
    <edge id=":1615564399_0" function="internal">
        <lane id=":1615564399_0_0" index="0" allow="tram" speed="9.72" length="2.96" shape="593.42,1179.77 591.46,1181.98"/>
    </edge>
    <edge id=":1615564399_1" function="internal">
        <lane id=":1615564399_1_0" index="0" allow="tram" speed="9.72" length="2.96" shape="593.47,1179.81 591.46,1181.98"/>
    </edge>
    <edge id=":1633093590_0" function="internal">
        <lane id=":1633093590_0_0" index="0" allow="tram" speed="5.56" length="16.69" shape="719.74,1083.64 706.34,1073.68"/>
    </edge>
    <edge id=":1633093590_1" function="internal">
        <lane id=":1633093590_1_0" index="0" allow="tram" speed="5.56" length="16.87" shape="719.74,1083.64 716.27,1081.57 712.30,1079.67 708.20,1078.09 704.31,1077.03"/>
    </edge>
    <edge id=":1633112625_0" function="internal">
        <lane id=":1633112625_0_0" index="0" allow="tram" speed="9.72" length="16.87" shape="457.31,1201.61 453.81,1199.58 449.99,1197.39 446.25,1195.09 442.98,1192.73"/>
    </edge>
    <edge id=":1633112625_1" function="internal">
        <lane id=":1633112625_1_0" index="0" allow="tram" speed="13.89" length="21.11" shape="459.46,1205.93 442.98,1192.73"/>
    </edge>
    <edge id=":1827996501_0" function="internal">
        <lane id=":1827996501_0_0" index="0" disallow="tram rail_urban rail rail_electric rail_fast ship" speed="13.89" length="5.34" shape="244.82,1026.95 248.75,1030.28"/>
        <lane id=":1827996501_0_1" index="1" disallow="tram rail_urban rail rail_electric rail_fast ship" speed="13.89" length="5.34" shape="246.81,1024.45 250.88,1027.90"/>
        <lane id=":1827996501_0_2" index="2" disallow="tram rail_urban rail rail_electric rail_fast ship" speed="13.89" length="5.34" shape="248.81,1021.94 253.02,1025.52"/>
    </edge>
    <edge id=":1827996550_0" function="internal">
        <lane id=":1827996550_0_0" index="0" disallow="tram rail_urban rail rail_electric rail_fast ship" speed="13.89" length="5.00" shape="241.60,1039.42 237.65,1036.35"/>
        <lane id=":1827996550_0_1" index="1" disallow="tram rail_urban rail rail_electric rail_fast ship" speed="13.89" length="5.00" shape="239.63,1041.94 235.68,1038.87"/>
        <lane id=":1827996550_0_2" index="2" disallow="tram rail_urban rail rail_electric rail_fast ship" speed="13.89" length="5.00" shape="237.67,1044.47 233.72,1041.40"/>
    </edge>
    <edge id=":1827996603_0" function="internal">
        <lane id=":1827996603_0_0" index="0" disallow="tram rail_urban rail rail_electric rail_fast ship" speed="13.89" length="5.00" shape="252.39,1047.82 248.44,1044.74"/>
        <lane id=":1827996603_0_1" index="1" disallow="tram rail_urban rail rail_electric rail_fast ship" speed="13.89" length="5.00" shape="250.43,1050.34 246.48,1047.27"/>
        <lane id=":1827996603_0_2" index="2" disallow="tram rail_urban rail rail_electric rail_fast ship" speed="13.89" length="5.00" shape="248.46,1052.87 244.51,1049.80"/>
    </edge>
    <edge id=":1828018014_0" function="internal">
        <lane id=":1828018014_0_0" index="0" disallow="tram rail_urban rail rail_electric rail_fast ship" speed="13.89" length="5.10" shape="589.10,1309.95 592.71,1313.47"/>
        <lane id=":1828018014_0_1" index="1" disallow="tram rail_urban rail rail_electric rail_fast ship" speed="13.89" length="5.10" shape="591.31,1307.64 594.97,1311.20"/>
        <lane id=":1828018014_0_2" index="2" disallow="tram rail_urban rail rail_electric rail_fast ship" speed="13.89" length="5.10" shape="593.52,1305.32 597.23,1308.93"/>
    </edge>
    <edge id=":1828018040_0" function="internal">
        <lane id=":1828018040_0_0" index="0" disallow="tram rail_urban rail rail_electric rail_fast ship" speed="13.89" length="5.29" shape="584.11,1322.56 580.46,1318.81"/>
        <lane id=":1828018040_0_1" index="1" disallow="tram rail_urban rail rail_electric rail_fast ship" speed="13.89" length="5.29" shape="581.83,1324.81 578.15,1321.02"/>
        <lane id=":1828018040_0_2" index="2" disallow="tram rail_urban rail rail_electric rail_fast ship" speed="13.89" length="5.29" shape="579.56,1327.06 575.83,1323.23"/>
    </edge>
    <edge id=":1937657607_0" function="internal">
        <lane id=":1937657607_0_0" index="0" disallow="tram rail_urban rail rail_electric rail_fast ship" speed="8.33" length="4.90" shape="235.67,1351.03 230.78,1350.77"/>
    </edge>
    <edge id=":1937657607_1" function="internal">
        <lane id=":1937657607_1_0" index="0" disallow="tram rail_urban rail rail_electric rail_fast ship" speed="3.65" length="4.67" shape="235.67,1351.03 234.44,1351.78 234.01,1352.56 234.37,1353.38 235.54,1354.23"/>
    </edge>
    <edge id=":1937657607_2" function="internal">
        <lane id=":1937657607_2_0" index="0" disallow="tram rail_urban rail rail_electric rail_fast ship" speed="8.33" length="4.97" shape="230.58,1353.96 235.54,1354.23"/>
    </edge>
    <edge id=":1937657607_3" function="internal">
        <lane id=":1937657607_3_0" index="0" disallow="tram rail_urban rail rail_electric rail_fast ship" speed="3.65" length="4.67" shape="230.58,1353.96 231.82,1353.24 232.27,1352.47 231.92,1351.64 230.78,1350.77"/>
    </edge>
    <edge id=":196693480_0" function="internal">