<?xml version="1.0" encoding="UTF-8"?>

<!-- generated on Tue Feb 16 23:28:49 2021 by Eclipse SUMO netedit Version 1.7.0
<configuration xmlns:xsi="http://www.w3.org/2001/XMLSchema-instance" xsi:noNamespaceSchemaLocation="http://sumo.dlr.de/xsd/netconvertConfiguration.xsd">

    <input>
        <sumo-net-file value="ForBusStop.net.xml"/>
    </input>

    <output>
        <output-file value="ForBusStop.net.xml"/>
    </output>

    <processing>
        <geometry.min-radius.fix.railways value="false"/>
        <geometry.max-grade.fix value="false"/>
        <offset.disable-normalization value="true"/>
        <lefthand value="false"/>
    </processing>

    <junctions>
        <no-internal-links value="false"/>
        <no-turnarounds value="true"/>
        <junctions.corner-detail value="5"/>
        <junctions.limit-turn-speed value="5.5"/>
        <rectangular-lane-cut value="false"/>
    </junctions>

    <pedestrian>
        <walkingareas value="false"/>
    </pedestrian>

    <netedit>
        <additional-files value="/home/shashwath/Sumo/sumo_exam/ForBusStop/busStop.add.xml"/>
        <route-files value="/home/shashwath/Sumo/sumo_exam/ForBusStop/ToBusStop.rou.xml"/>
    </netedit>

    <report>
        <aggregate-warnings value="5"/>
    </report>

</configuration>
-->

<net version="1.6" junctionCornerDetail="5" limitTurnSpeed="5.50" xmlns:xsi="http://www.w3.org/2001/XMLSchema-instance" xsi:noNamespaceSchemaLocation="http://sumo.dlr.de/xsd/net_file.xsd">

    <location netOffset="0.00,0.00" convBoundary="-53.91,-3.86,132.62,49.36" origBoundary="-10000000000.00,-10000000000.00,10000000000.00,10000000000.00" projParameter="!"/>

    <edge id=":gneJ0_0" function="internal">
        <lane id=":gneJ0_0_0" index="0" speed="13.89" length="2.98" shape="-7.48,49.70 -10.47,49.70"/>
    </edge>
    <edge id=":gneJ0_1" function="internal">
        <lane id=":gneJ0_1_0" index="0" disallow="pedestrian" speed="13.89" length="3.03" shape="-10.49,46.50 -7.46,46.50"/>
    </edge>
    <edge id=":gneJ0_w0" function="walkingarea">
        <lane id=":gneJ0_w0_0" index="0" allow="pedestrian" speed="1.00" length="6.48" width="3.20" shape="-7.45,44.90 -7.44,42.90 -10.50,44.90 -10.48,48.10 -10.48,48.10 -10.46,51.30 -10.46,51.30 -10.44,54.50 -7.51,54.50 -7.49,51.30 -7.49,51.30 -7.47,48.10"/>
    </edge>
    <edge id=":gneJ1_0" function="internal">
        <lane id=":gneJ1_0_0" index="0" speed="13.89" length="8.39" shape="42.57,49.98 34.18,49.97"/>
    </edge>
    <edge id=":gneJ1_1" function="internal">
        <lane id=":gneJ1_1_0" index="0" speed="11.71" length="3.79" shape="42.57,49.98 39.61,48.97 39.32,48.37"/>
    </edge>
    <edge id=":gneJ1_4" function="internal">
        <lane id=":gneJ1_4_0" index="0" speed="11.71" length="8.51" shape="39.32,48.37 38.43,46.60 37.67,43.58 35.95,40.63"/>
    </edge>
    <edge id=":gneJ1_2" function="internal">
        <lane id=":gneJ1_2_0" index="0" disallow="pedestrian" speed="5.60" length="10.28" shape="34.20,46.77 37.27,46.40 38.58,45.26 38.14,43.33 35.95,40.63"/>
    </edge>
    <edge id=":gneJ1_3" function="internal">
        <lane id=":gneJ1_3_0" index="0" disallow="pedestrian" speed="13.89" length="8.42" shape="34.20,46.77 42.63,46.78"/>
    </edge>
    <edge id=":gneJ1_c0" function="crossing" crossingEdges="gneE1 -gneE1">
        <lane id=":gneJ1_c0_0" index="0" allow="pedestrian" speed="1.00" length="6.40" width="4.00" shape="40.66,45.14 40.54,51.54"/>
    </edge>
    <edge id=":gneJ1_c1" function="crossing" crossingEdges="-gneE0 gneE0">
        <lane id=":gneJ1_c1_0" index="0" allow="pedestrian" speed="1.00" length="6.40" width="4.00" shape="36.17,51.58 36.21,45.18"/>
    </edge>
    <edge id=":gneJ1_w0" function="walkingarea">
        <lane id=":gneJ1_w0_0" index="0" allow="pedestrian" speed="1.00" length="8.35" width="3.20" shape="34.19,48.37 34.17,51.57 34.17,51.57 34.15,54.76 42.48,54.78 42.54,51.58 42.54,51.58 42.60,48.38"/>
    </edge>
    <edge id=":gneJ1_w1" function="walkingarea">
        <lane id=":gneJ1_w1_0" index="0" allow="pedestrian" speed="1.00" length="5.30" width="4.00" shape="38.66,45.10 42.66,45.18 42.69,43.18 37.09,39.51 34.82,41.76 34.22,43.17 34.21,45.17 38.21,45.19"/>
    </edge>
    <edge id=":gneJ1_w2" function="walkingarea">
        <lane id=":gneJ1_w2_0" index="0" allow="pedestrian" speed="1.00" length="4.37" width="4.00" shape="38.54,51.50 42.54,51.58 34.17,51.57 38.17,51.59"/>
    </edge>
    <edge id=":gneJ2_0" function="internal">
        <lane id=":gneJ2_0_0" index="0" speed="13.89" length="5.19" shape="98.49,50.18 97.02,50.63 95.99,50.86 94.93,50.93 93.39,50.92"/>
    </edge>
    <edge id=":gneJ2_1" function="internal">
        <lane id=":gneJ2_1_0" index="0" disallow="pedestrian" speed="13.89" length="4.15" shape="93.45,47.72 94.68,47.73 95.53,47.67 96.35,47.49 97.53,47.13"/>
    </edge>
    <edge id=":gneJ2_w0" function="walkingarea">
        <lane id=":gneJ2_w0_0" index="0" allow="pedestrian" speed="1.00" length="6.48" width="3.20" shape="93.42,49.32 93.36,52.52 93.36,52.52 93.31,55.72 98.97,51.71 98.01,48.66 97.06,48.95 96.35,49.15 95.76,49.26 95.15,49.32 94.41,49.33"/>
    </edge>
    <edge id=":gneJ2_w1" function="walkingarea">
        <lane id=":gneJ2_w1_0" index="0" allow="pedestrian" speed="1.00" length="3.28" width="2.00" shape="97.05,45.60 96.45,43.70 93.52,44.12 93.48,46.12 94.25,46.13 94.83,46.12 95.30,46.08 95.76,45.98 96.31,45.83"/>
    </edge>
    <edge id=":gneJ3_0" function="internal">
        <lane id=":gneJ3_0_0" index="0" speed="7.54" length="10.77" shape="133.44,31.43 133.54,34.80 132.91,37.42 131.56,39.31 129.47,40.45"/>
    </edge>
    <edge id=":gneJ3_1" function="internal">
        <lane id=":gneJ3_1_0" index="0" disallow="pedestrian" speed="5.93" length="6.30" shape="128.51,37.39 129.51,36.77 130.13,35.63 130.38,33.98 130.27,31.82"/>
    </edge>
    <edge id=":gneJ3_w0" function="walkingarea">
        <lane id=":gneJ3_w0_0" index="0" allow="pedestrian" speed="1.00" length="6.37" width="3.20" shape="128.99,38.92 129.95,41.97 135.03,31.23 131.85,31.63 131.85,31.63 128.68,32.02 127.43,33.96 128.03,35.87"/>
    </edge>
    <edge id=":gneJ4_0" function="internal">
        <lane id=":gneJ4_0_0" index="0" speed="4.00" length="1.76" shape="127.91,12.91 127.80,12.47 127.59,12.10 127.29,11.82 126.88,11.61"/>
    </edge>
    <edge id=":gneJ4_1" function="internal">
        <lane id=":gneJ4_1_0" index="0" speed="6.26" length="5.27" shape="127.98,8.61 129.21,9.23 130.13,10.09 130.76,11.18 131.09,12.52"/>
    </edge>
    <edge id=":gneJ4_w0" function="walkingarea">
        <lane id=":gneJ4_w0_0" index="0" allow="pedestrian" speed="1.00" length="3.61" width="3.20" shape="126.33,13.11 129.50,12.72 129.50,12.72 132.68,12.32 128.53,7.10 127.43,10.11 127.43,10.11 126.33,13.11"/>
    </edge>
    <edge id=":gneJ5_0" function="internal">
        <lane id=":gneJ5_0_0" index="0" speed="13.89" length="0.37" shape="101.93,2.44 101.83,2.40 101.76,2.38 101.69,2.37 101.58,2.35"/>
    </edge>
    <edge id=":gneJ5_1" function="internal">
        <lane id=":gneJ5_1_0" index="0" speed="13.89" length="1.10" shape="101.98,-0.82 102.30,-0.78 102.52,-0.74 102.73,-0.68 103.04,-0.57"/>
    </edge>
    <edge id=":gneJ5_w0" function="walkingarea">
        <lane id=":gneJ5_w0_0" index="0" allow="pedestrian" speed="1.00" length="2.40" width="3.20" shape="101.38,3.94 102.48,0.94 102.48,0.94 103.59,-2.07 102.17,-2.41 101.78,0.76 101.78,0.76 101.38,3.94"/>
    </edge>
    <edge id=":gneJ6_0" function="internal">
        <lane id=":gneJ6_0_0" index="0" speed="13.89" length="0.31" shape="64.95,-2.23 64.86,-2.25 64.79,-2.25 64.73,-2.25 64.64,-2.24"/>
    </edge>
    <edge id=":gneJ6_1" function="internal">
        <lane id=":gneJ6_1_0" index="0" speed="13.89" length="0.92" shape="64.43,-5.44 64.70,-5.45 64.89,-5.46 65.07,-5.44 65.34,-5.41"/>
    </edge>
    <edge id=":gneJ6_w0" function="walkingarea">
        <lane id=":gneJ6_w0_0" index="0" allow="pedestrian" speed="1.00" length="2.35" width="3.20" shape="64.75,-0.65 65.14,-3.82 65.14,-3.82 65.54,-7.00 64.32,-7.03 64.53,-3.84 64.53,-3.84 64.75,-0.65"/>
    </edge>
    <edge id=":gneJ7_0" function="internal">
        <lane id=":gneJ7_0_0" index="0" speed="7.90" length="8.01" shape="1.93,6.28 0.02,4.59 -1.78,3.49 -3.47,2.97 -5.05,3.04"/>
    </edge>
    <edge id=":gneJ7_1" function="internal">
        <lane id=":gneJ7_1_0" index="0" speed="6.04" length="11.81" shape="1.93,6.28 -0.61,3.14 -1.21,0.82 0.13,-0.69 3.41,-1.38"/>
    </edge>
    <edge id=":gneJ7_2" function="internal">
        <lane id=":gneJ7_2_0" index="0" speed="13.89" length="8.78" shape="3.62,1.81 1.02,1.99 -0.76,2.16 -2.51,2.46 -5.05,3.04"/>
    </edge>
    <edge id=":gneJ7_3" function="internal">
        <lane id=":gneJ7_3_0" index="0" speed="13.89" length="9.31" shape="-5.79,-0.08 -3.10,-0.69 -1.23,-1.01 0.65,-1.20 3.41,-1.38"/>
    </edge>
    <edge id=":gneJ7_w0" function="walkingarea">
        <lane id=":gneJ7_w0_0" index="0" allow="pedestrian" speed="1.00" length="7.39" width="3.20" shape="0.79,7.40 3.07,5.15 3.73,3.41 3.52,0.22 3.52,0.22 3.30,-2.98 -6.15,-1.64 -5.42,1.48 -5.42,1.48 -4.68,4.59 -0.27,6.40 -1.28,5.61 -2.22,5.04 -3.10,4.68 -3.93,4.53"/>
    </edge>
    <edge id=":gneJ8_0" function="internal">
        <lane id=":gneJ8_0_0" index="0" speed="6.13" length="6.55" shape="-55.49,15.50 -55.27,13.77 -54.58,12.41 -53.42,11.41 -51.79,10.79"/>
    </edge>
    <edge id=":gneJ8_1" function="internal">
        <lane id=":gneJ8_1_0" index="0" speed="3.93" length="2.18" shape="-51.05,13.90 -51.60,14.11 -51.98,14.44 -52.21,14.89 -52.29,15.47"/>
    </edge>
    <edge id=":gneJ8_w0" function="walkingarea">
        <lane id=":gneJ8_w0_0" index="0" allow="pedestrian" speed="1.00" length="3.97" width="3.20" shape="-57.09,15.52 -53.89,15.49 -53.89,15.49 -50.69,15.46 -50.69,15.46 -51.42,12.34 -51.42,12.34 -52.16,9.23 -56.96,13.92 -56.56,12.55 -55.88,11.39 -54.92,10.45 -53.68,9.73"/>
    </edge>
    <edge id=":gneJ9_0" function="internal">
        <lane id=":gneJ9_0_0" index="0" speed="8.00" length="14.16" shape="-46.38,49.94 -50.22,49.42 -52.98,47.79 -54.65,45.06 -55.24,41.23"/>
    </edge>
    <edge id=":gneJ9_1" function="internal">
        <lane id=":gneJ9_1_0" index="0" speed="6.51" length="9.01" shape="-52.04,41.20 -51.67,43.64 -50.60,45.37 -48.85,46.41 -46.40,46.74"/>
    </edge>
    <edge id=":gneJ9_w0" function="walkingarea">
        <lane id=":gneJ9_w0_0" index="0" allow="pedestrian" speed="1.00" length="9.34" width="3.20" shape="-46.35,54.74 -46.37,51.54 -46.37,51.54 -46.39,48.34 -46.39,48.34 -46.41,45.14 -50.44,41.18 -53.64,41.21 -53.64,41.21 -56.84,41.24 -49.52,54.39 -52.12,53.27 -54.15,51.40 -55.62,48.77 -56.51,45.39"/>
    </edge>

    <edge id="-gneE0" from="gneJ1" to="gneJ0" priority="-1">
        <lane id="-gneE0_0" index="0" allow="pedestrian" speed="13.89" length="41.67" shape="34.16,53.17 -7.50,52.90"/>
        <lane id="-gneE0_1" index="1" speed="13.89" length="41.67" shape="34.18,49.97 -7.48,49.70"/>
    </edge>
    <edge id="-gneE1" from="gneJ2" to="gneJ1" priority="-1">
        <lane id="-gneE1_0" index="0" allow="pedestrian" speed="13.89" length="50.84" shape="93.33,54.12 42.51,53.18"/>
        <lane id="-gneE1_1" index="1" speed="13.89" length="50.84" shape="93.39,50.92 42.57,49.98"/>
    </edge>
    <edge id="-gneE2" from="gneJ3" to="gneJ2" priority="-1">
        <lane id="-gneE2_0" index="0" speed="13.89" length="32.48" shape="129.47,40.45 98.49,50.18"/>
    </edge>
    <edge id="-gneE3" from="gneJ4" to="gneJ3" priority="-1">
        <lane id="-gneE3_0" index="0" speed="13.89" length="19.06" shape="131.09,12.52 133.44,31.43"/>
    </edge>
    <edge id="-gneE4" from="gneJ5" to="gneJ4" priority="-1">
        <lane id="-gneE4_0" index="0" speed="13.89" length="26.58" shape="103.04,-0.57 127.98,8.61"/>
    </edge>
    <edge id="-gneE5" from="gneJ6" to="gneJ5" priority="-1">
        <lane id="-gneE5_0" index="0" speed="13.89" length="36.92" shape="65.34,-5.41 101.98,-0.82"/>
    </edge>
    <edge id="-gneE6" from="gneJ7" to="gneJ6" priority="-1">
        <lane id="-gneE6_0" index="0" speed="13.89" length="61.15" shape="3.41,-1.38 64.43,-5.44"/>
    </edge>
    <edge id="-gneE7" from="gneJ8" to="gneJ7" priority="-1">
        <lane id="-gneE7_0" index="0" speed="13.89" length="47.27" shape="-51.79,10.79 -5.79,-0.08"/>
    </edge>
    <edge id="-gneE8" from="gneJ9" to="gneJ8" priority="-1">
        <lane id="-gneE8_0" index="0" speed="13.89" length="25.72" shape="-55.24,41.23 -55.49,15.50"/>
    </edge>
    <edge id="-gneE9" from="gneJ0" to="gneJ9" priority="-1">
        <lane id="-gneE9_0" index="0" allow="pedestrian" speed="13.89" length="35.91" shape="-10.45,52.90 -46.36,53.14"/>
        <lane id="-gneE9_1" index="1" speed="13.89" length="35.91" shape="-10.47,49.70 -46.38,49.94"/>
    </edge>
    <edge id="gneE0" from="gneJ0" to="gneJ1" priority="-1">
        <lane id="gneE0_0" index="0" allow="pedestrian" speed="13.89" length="41.67" width="2.00" shape="-7.45,43.90 34.22,44.17"/>
        <lane id="gneE0_1" index="1" disallow="pedestrian" speed="13.89" length="41.67" shape="-7.46,46.50 34.20,46.77"/>
    </edge>
    <edge id="gneE1" from="gneJ1" to="gneJ2" priority="-1">
        <lane id="gneE1_0" index="0" allow="pedestrian" speed="13.89" length="50.84" width="2.00" shape="42.67,44.18 93.50,45.12"/>
        <lane id="gneE1_1" index="1" disallow="pedestrian" speed="13.89" length="50.84" shape="42.63,46.78 93.45,47.72"/>
    </edge>
    <edge id="gneE10" from="gneJ1" to="gneJ7" priority="-1">
        <lane id="gneE10_0" index="0" speed="13.89" length="48.35" shape="35.95,40.63 1.93,6.28"/>
    </edge>
    <edge id="gneE2" from="gneJ2" to="gneJ3" priority="-1">
        <lane id="gneE2_0" index="0" allow="pedestrian" speed="13.89" length="32.48" width="2.00" shape="96.75,44.65 127.73,34.91"/>
        <lane id="gneE2_1" index="1" disallow="pedestrian" speed="13.89" length="32.48" shape="97.53,47.13 128.51,37.39"/>
    </edge>
    <edge id="gneE3" from="gneJ3" to="gneJ4" priority="-1">
        <lane id="gneE3_0" index="0" speed="13.89" length="19.06" shape="130.27,31.82 127.91,12.91"/>
    </edge>
    <edge id="gneE4" from="gneJ4" to="gneJ5" priority="-1">
        <lane id="gneE4_0" index="0" speed="13.89" length="26.58" shape="126.88,11.61 101.93,2.44"/>
    </edge>
    <edge id="gneE5" from="gneJ5" to="gneJ6" priority="-1">
        <lane id="gneE5_0" index="0" speed="13.89" length="36.92" shape="101.58,2.35 64.95,-2.23"/>
    </edge>
    <edge id="gneE6" from="gneJ6" to="gneJ7" priority="-1">
        <lane id="gneE6_0" index="0" speed="13.89" length="61.15" shape="64.64,-2.24 3.62,1.81"/>
    </edge>
    <edge id="gneE7" from="gneJ7" to="gneJ8" priority="-1">
        <lane id="gneE7_0" index="0" speed="13.89" length="47.27" shape="-5.05,3.04 -51.05,13.90"/>
    </edge>
    <edge id="gneE8" from="gneJ8" to="gneJ9" priority="-1">
        <lane id="gneE8_0" index="0" speed="13.89" length="25.72" shape="-52.29,15.47 -52.04,41.20"/>
    </edge>
    <edge id="gneE9" from="gneJ9" to="gneJ0" priority="-1">
        <lane id="gneE9_0" index="0" speed="13.89" length="35.91" shape="-46.40,46.74 -10.49,46.50"/>
    </edge>

    <tlLogic id="gneJ2" type="static" programID="0" offset="0">
        <phase duration="20" state="GG"/>
        <phase duration="5"  state="yy"/>
        <phase duration="10" state="rr"/>
    </tlLogic>

    <junction id="gneJ0" type="priority" x="-8.98" y="48.09" incLanes="-gneE0_0 -gneE0_1 gneE9_0" intLanes=":gneJ0_0_0 :gneJ0_1_0" shape="-7.51,54.50 -7.44,42.90 -10.50,44.90 -10.44,54.50">
        <request index="0" response="00" foes="00" cont="0"/>
        <request index="1" response="00" foes="00" cont="0"/>
    </junction>
    <junction id="gneJ1" type="priority" x="45.94" y="48.44" incLanes="-gneE1_0 -gneE1_1 gneE0_0 gneE0_1 :gneJ1_w1_0 :gneJ1_w2_0" intLanes=":gneJ1_0_0 :gneJ1_4_0 :gneJ1_2_0 :gneJ1_3_0 :gneJ1_c0_0 :gneJ1_c1_0" shape="42.48,54.78 42.69,43.18 40.28,42.73 39.52,42.21 38.85,41.50 38.09,40.60 37.09,39.51 34.82,41.76 35.38,42.54 35.37,42.82 35.18,43.01 34.80,43.13 34.22,43.17 34.15,54.76">
        <request index="0" response="000000" foes="110000" cont="0"/>
        <request index="1" response="001100" foes="011100" cont="1"/>
        <request index="2" response="000000" foes="100010" cont="0"/>
        <request index="3" response="000000" foes="110010" cont="0"/>
        <request index="4" response="001011" foes="001011" cont="0"/>
        <request index="5" response="001101" foes="001101" cont="0"/>
    </junction>
    <junction id="gneJ2" type="traffic_light" x="95.77" y="49.36" incLanes="-gneE2_0 gneE1_0 gneE1_1" intLanes=":gneJ2_0_0 :gneJ2_1_0" shape="98.97,51.71 96.45,43.70 95.39,44.01 95.01,44.08 94.62,44.12 94.15,44.13 93.52,44.12 93.31,55.72 95.58,54.94 96.20,54.13 96.80,53.22 97.64,52.37">
        <request index="0" response="00" foes="00" cont="0"/>
        <request index="1" response="00" foes="00" cont="0"/>
    </junction>
    <junction id="gneJ3" type="priority" x="132.62" y="37.78" incLanes="-gneE3_0 gneE2_0 gneE2_1" intLanes=":gneJ3_0_0 :gneJ3_1_0" shape="135.03,31.23 128.68,32.02 128.62,32.90 128.46,33.25 128.21,33.54 127.86,33.78 127.43,33.96 129.95,41.97 131.81,41.14 133.26,39.92 134.31,38.32 134.95,36.34 135.19,33.97">
        <request index="0" response="00" foes="00" cont="0"/>
        <request index="1" response="00" foes="00" cont="0"/>
    </junction>
    <junction id="gneJ4" type="priority" x="129.26" y="10.78" incLanes="gneE3_0 -gneE4_0" intLanes=":gneJ4_0_0 :gneJ4_1_0" shape="126.33,13.11 132.68,12.32 132.00,10.02 131.40,9.08 130.62,8.28 129.67,7.62 128.53,7.10">
        <request index="0" response="00" foes="00" cont="0"/>
        <request index="1" response="00" foes="00" cont="0"/>
    </junction>
    <junction id="gneJ5" type="priority" x="102.14" y="0.81" incLanes="gneE4_0 -gneE5_0" intLanes=":gneJ5_0_0 :gneJ5_1_0" shape="101.38,3.94 103.59,-2.07 103.08,-2.25 102.90,-2.30 102.71,-2.34 102.48,-2.37 102.17,-2.41">
        <request index="0" response="00" foes="00" cont="0"/>
        <request index="1" response="00" foes="00" cont="0"/>
    </junction>
    <junction id="gneJ6" type="priority" x="64.84" y="-3.86" incLanes="gneE5_0 -gneE6_0" intLanes=":gneJ6_0_0 :gneJ6_1_0" shape="64.75,-0.65 65.54,-7.00 65.09,-7.05 64.93,-7.06 64.77,-7.06 64.58,-7.05 64.32,-7.03">
        <request index="0" response="00" foes="00" cont="0"/>
        <request index="1" response="00" foes="00" cont="0"/>
    </junction>
    <junction id="gneJ7" type="priority" x="-1.49" y="0.55" incLanes="gneE10_0 gneE6_0 -gneE7_0" intLanes=":gneJ7_0_0 :gneJ7_1_0 :gneJ7_2_0 :gneJ7_3_0" shape="0.79,7.40 3.07,5.15 2.44,4.25 2.44,3.92 2.66,3.67 3.09,3.50 3.73,3.41 3.30,-2.98 1.27,-2.84 -0.23,-2.73 -1.47,-2.60 -2.70,-2.40 -4.17,-2.09 -6.15,-1.64 -4.68,4.59 -3.10,4.68 -2.22,5.04 -1.28,5.61 -0.27,6.40">
        <request index="0" response="0100" foes="0100" cont="0"/>
        <request index="1" response="1100" foes="1100" cont="0"/>
        <request index="2" response="0000" foes="0011" cont="0"/>
        <request index="3" response="0000" foes="0010" cont="0"/>
    </junction>
    <junction id="gneJ8" type="priority" x="-53.91" y="12.93" incLanes="-gneE8_0 gneE7_0" intLanes=":gneJ8_0_0 :gneJ8_1_0" shape="-57.09,15.52 -50.69,15.46 -52.16,9.23 -54.92,10.45 -55.88,11.39 -56.56,12.55 -56.96,13.92">
        <request index="0" response="00" foes="00" cont="0"/>
        <request index="1" response="00" foes="00" cont="0"/>
    </junction>
    <junction id="gneJ9" type="priority" x="-53.57" y="48.39" incLanes="-gneE9_0 -gneE9_1 gneE8_0" intLanes=":gneJ9_0_0 :gneJ9_1_0" shape="-46.35,54.74 -46.41,45.14 -48.63,44.71 -49.41,44.16 -49.97,43.39 -50.32,42.40 -50.44,41.18 -56.84,41.24 -56.51,45.39 -55.62,48.77 -54.15,51.40 -52.12,53.27 -49.52,54.39">
        <request index="0" response="00" foes="00" cont="0"/>
        <request index="1" response="00" foes="00" cont="0"/>
    </junction>

    <junction id=":gneJ1_4_0" type="internal" x="39.32" y="48.37" incLanes=":gneJ1_1_0 gneE0_1" intLanes=":gneJ1_2_0 :gneJ1_3_0 :gneJ1_c0_0"/>

    <connection from="-gneE0" to="-gneE9" fromLane="1" toLane="1" via=":gneJ0_0_0" dir="s" state="M"/>
    <connection from="-gneE1" to="-gneE0" fromLane="1" toLane="1" via=":gneJ1_0_0" dir="s" state="M"/>
    <connection from="-gneE1" to="gneE10" fromLane="1" toLane="0" via=":gneJ1_1_0" dir="l" state="m"/>
    <connection from="-gneE2" to="-gneE1" fromLane="0" toLane="1" via=":gneJ2_0_0" tl="gneJ2" linkIndex="0" dir="s" state="O"/>
    <connection from="-gneE3" to="-gneE2" fromLane="0" toLane="0" via=":gneJ3_0_0" dir="l" state="M"/>
    <connection from="-gneE4" to="-gneE3" fromLane="0" toLane="0" via=":gneJ4_1_0" dir="l" state="M"/>
    <connection from="-gneE5" to="-gneE4" fromLane="0" toLane="0" via=":gneJ5_1_0" dir="s" state="M"/>
    <connection from="-gneE6" to="-gneE5" fromLane="0" toLane="0" via=":gneJ6_1_0" dir="s" state="M"/>
    <connection from="-gneE7" to="-gneE6" fromLane="0" toLane="0" via=":gneJ7_3_0" dir="s" state="M"/>
    <connection from="-gneE8" to="-gneE7" fromLane="0" toLane="0" via=":gneJ8_0_0" dir="l" state="M"/>
    <connection from="-gneE9" to="-gneE8" fromLane="1" toLane="0" via=":gneJ9_0_0" dir="l" state="M"/>
    <connection from="gneE0" to="gneE10" fromLane="1" toLane="0" via=":gneJ1_2_0" dir="r" state="M"/>
    <connection from="gneE0" to="gneE1" fromLane="1" toLane="1" via=":gneJ1_3_0" dir="s" state="M"/>
    <connection from="gneE1" to="gneE2" fromLane="1" toLane="1" via=":gneJ2_1_0" tl="gneJ2" linkIndex="1" dir="s" state="O"/>
    <connection from="gneE10" to="gneE7" fromLane="0" toLane="0" via=":gneJ7_0_0" dir="r" state="m"/>
    <connection from="gneE10" to="-gneE6" fromLane="0" toLane="0" via=":gneJ7_1_0" dir="l" state="m"/>
    <connection from="gneE2" to="gneE3" fromLane="1" toLane="0" via=":gneJ3_1_0" dir="r" state="M"/>
    <connection from="gneE3" to="gneE4" fromLane="0" toLane="0" via=":gneJ4_0_0" dir="r" state="M"/>
    <connection from="gneE4" to="gneE5" fromLane="0" toLane="0" via=":gneJ5_0_0" dir="s" state="M"/>
    <connection from="gneE5" to="gneE6" fromLane="0" toLane="0" via=":gneJ6_0_0" dir="s" state="M"/>
    <connection from="gneE6" to="gneE7" fromLane="0" toLane="0" via=":gneJ7_2_0" dir="s" state="M"/>
    <connection from="gneE7" to="gneE8" fromLane="0" toLane="0" via=":gneJ8_1_0" dir="r" state="M"/>
    <connection from="gneE8" to="gneE9" fromLane="0" toLane="0" via=":gneJ9_1_0" dir="r" state="M"/>
    <connection from="gneE9" to="gneE0" fromLane="0" toLane="1" via=":gneJ0_1_0" dir="s" state="M"/>

    <connection from=":gneJ0_0" to="-gneE9" fromLane="0" toLane="1" dir="s" state="M"/>
    <connection from=":gneJ0_1" to="gneE0" fromLane="0" toLane="1" dir="s" state="M"/>
    <connection from=":gneJ1_0" to="-gneE0" fromLane="0" toLane="1" dir="s" state="M"/>
    <connection from=":gneJ1_1" to="gneE10" fromLane="0" toLane="0" via=":gneJ1_4_0" dir="l" state="m"/>
    <connection from=":gneJ1_4" to="gneE10" fromLane="0" toLane="0" dir="l" state="M"/>
    <connection from=":gneJ1_2" to="gneE10" fromLane="0" toLane="0" dir="r" state="M"/>
    <connection from=":gneJ1_3" to="gneE1" fromLane="0" toLane="1" dir="s" state="M"/>
    <connection from=":gneJ2_0" to="-gneE1" fromLane="0" toLane="1" dir="s" state="M"/>
    <connection from=":gneJ2_1" to="gneE2" fromLane="0" toLane="1" dir="s" state="M"/>
    <connection from=":gneJ3_0" to="-gneE2" fromLane="0" toLane="0" dir="l" state="M"/>
    <connection from=":gneJ3_1" to="gneE3" fromLane="0" toLane="0" dir="r" state="M"/>
    <connection from=":gneJ4_0" to="gneE4" fromLane="0" toLane="0" dir="r" state="M"/>
    <connection from=":gneJ4_1" to="-gneE3" fromLane="0" toLane="0" dir="l" state="M"/>
    <connection from=":gneJ5_0" to="gneE5" fromLane="0" toLane="0" dir="s" state="M"/>
    <connection from=":gneJ5_1" to="-gneE4" fromLane="0" toLane="0" dir="s" state="M"/>
    <connection from=":gneJ6_0" to="gneE6" fromLane="0" toLane="0" dir="s" state="M"/>
    <connection from=":gneJ6_1" to="-gneE5" fromLane="0" toLane="0" dir="s" state="M"/>
    <connection from=":gneJ7_0" to="gneE7" fromLane="0" toLane="0" dir="r" state="M"/>
    <connection from=":gneJ7_1" to="-gneE6" fromLane="0" toLane="0" dir="l" state="M"/>
    <connection from=":gneJ7_2" to="gneE7" fromLane="0" toLane="0" dir="s" state="M"/>
    <connection from=":gneJ7_3" to="-gneE6" fromLane="0" toLane="0" dir="s" state="M"/>
    <connection from=":gneJ8_0" to="-gneE7" fromLane="0" toLane="0" dir="l" state="M"/>
    <connection from=":gneJ8_1" to="gneE8" fromLane="0" toLane="0" dir="r" state="M"/>
    <connection from=":gneJ9_0" to="-gneE8" fromLane="0" toLane="0" dir="l" state="M"/>
    <connection from=":gneJ9_1" to="gneE9" fromLane="0" toLane="0" dir="r" state="M"/>

    <connection from=":gneJ0_w0" to="gneE0" fromLane="0" toLane="0" dir="s" state="M"/>
    <connection from=":gneJ0_w0" to="-gneE9" fromLane="0" toLane="0" dir="s" state="M"/>
    <connection from="gneE9" to=":gneJ0_w0" fromLane="0" toLane="0" dir="s" state="M"/>
    <connection from="-gneE0" to=":gneJ0_w0" fromLane="0" toLane="0" dir="s" state="M"/>
    <connection from=":gneJ1_c0" to=":gneJ1_w2" fromLane="0" toLane="0" dir="s" state="M"/>
    <connection from=":gneJ1_c1" to=":gneJ1_w1" fromLane="0" toLane="0" dir="s" state="M"/>
    <connection from=":gneJ1_w0" to="-gneE0" fromLane="0" toLane="0" dir="s" state="M"/>
    <connection from="-gneE1" to=":gneJ1_w0" fromLane="0" toLane="0" dir="s" state="M"/>
    <connection from=":gneJ1_w1" to=":gneJ1_c0" fromLane="0" toLane="0" dir="s" state="m"/>
    <connection from=":gneJ1_w1" to="gneE1" fromLane="0" toLane="0" dir="s" state="M"/>
    <connection from=":gneJ1_w1" to="gneE10" fromLane="0" toLane="0" dir="s" state="M"/>
    <connection from="gneE0" to=":gneJ1_w1" fromLane="0" toLane="0" dir="s" state="M"/>
    <connection from=":gneJ1_w2" to=":gneJ1_c1" fromLane="0" toLane="0" dir="s" state="m"/>
    <connection from=":gneJ2_w0" to="-gneE1" fromLane="0" toLane="0" dir="s" state="M"/>
    <connection from="-gneE2" to=":gneJ2_w0" fromLane="0" toLane="0" dir="s" state="M"/>
    <connection from=":gneJ2_w1" to="gneE2" fromLane="0" toLane="0" dir="s" state="M"/>
    <connection from="gneE1" to=":gneJ2_w1" fromLane="0" toLane="0" dir="s" state="M"/>
    <connection from=":gneJ3_w0" to="-gneE2" fromLane="0" toLane="0" dir="s" state="M"/>
    <connection from=":gneJ3_w0" to="gneE3" fromLane="0" toLane="0" dir="s" state="M"/>
    <connection from="-gneE3" to=":gneJ3_w0" fromLane="0" toLane="0" dir="s" state="M"/>
    <connection from="gneE2" to=":gneJ3_w0" fromLane="0" toLane="0" dir="s" state="M"/>
    <connection from=":gneJ4_w0" to="-gneE3" fromLane="0" toLane="0" dir="s" state="M"/>
    <connection from=":gneJ4_w0" to="gneE4" fromLane="0" toLane="0" dir="s" state="M"/>
    <connection from="gneE3" to=":gneJ4_w0" fromLane="0" toLane="0" dir="s" state="M"/>
    <connection from="-gneE4" to=":gneJ4_w0" fromLane="0" toLane="0" dir="s" state="M"/>
    <connection from=":gneJ5_w0" to="-gneE4" fromLane="0" toLane="0" dir="s" state="M"/>
    <connection from=":gneJ5_w0" to="gneE5" fromLane="0" toLane="0" dir="s" state="M"/>
    <connection from="gneE4" to=":gneJ5_w0" fromLane="0" toLane="0" dir="s" state="M"/>
    <connection from="-gneE5" to=":gneJ5_w0" fromLane="0" toLane="0" dir="s" state="M"/>
    <connection from=":gneJ6_w0" to="-gneE5" fromLane="0" toLane="0" dir="s" state="M"/>
    <connection from=":gneJ6_w0" to="gneE6" fromLane="0" toLane="0" dir="s" state="M"/>
    <connection from="gneE5" to=":gneJ6_w0" fromLane="0" toLane="0" dir="s" state="M"/>
    <connection from="-gneE6" to=":gneJ6_w0" fromLane="0" toLane="0" dir="s" state="M"/>
    <connection from=":gneJ7_w0" to="-gneE6" fromLane="0" toLane="0" dir="s" state="M"/>
    <connection from=":gneJ7_w0" to="gneE7" fromLane="0" toLane="0" dir="s" state="M"/>
    <connection from="gneE10" to=":gneJ7_w0" fromLane="0" toLane="0" dir="s" state="M"/>
    <connection from="gneE6" to=":gneJ7_w0" fromLane="0" toLane="0" dir="s" state="M"/>
    <connection from="-gneE7" to=":gneJ7_w0" fromLane="0" toLane="0" dir="s" state="M"/>
    <connection from=":gneJ8_w0" to="gneE8" fromLane="0" toLane="0" dir="s" state="M"/>
    <connection from=":gneJ8_w0" to="-gneE7" fromLane="0" toLane="0" dir="s" state="M"/>
    <connection from="-gneE8" to=":gneJ8_w0" fromLane="0" toLane="0" dir="s" state="M"/>
    <connection from="gneE7" to=":gneJ8_w0" fromLane="0" toLane="0" dir="s" state="M"/>
    <connection from=":gneJ9_w0" to="gneE9" fromLane="0" toLane="0" dir="s" state="M"/>
    <connection from=":gneJ9_w0" to="-gneE8" fromLane="0" toLane="0" dir="s" state="M"/>
    <connection from="-gneE9" to=":gneJ9_w0" fromLane="0" toLane="0" dir="s" state="M"/>
    <connection from="gneE8" to=":gneJ9_w0" fromLane="0" toLane="0" dir="s" state="M"/>
</net>
